Program Version,EnergyPlus-Windows-64 8.1.0.009, YMD=2014.11.25 11:04
! <Version>, Version ID
 Version, 8.1
! <Timesteps per Hour>, #TimeSteps, Minutes per TimeStep {minutes}
 Timesteps per Hour,  4, 15
! <System Convergence Limits>, Minimum System TimeStep {minutes}, Max HVAC Iterations,  Minimum Plant Iterations, Maximum Plant Iterations
 System Convergence Limits, 1, 75, 2, 10
! <Simulation Control>, Do Zone Sizing, Do System Sizing, Do Plant Sizing, Do Design Days, Do Weather Simulation
 Simulation Control, Yes, Yes, Yes, No, Yes
! <Output Reporting Tolerances>, Tolerance for Time Heating Setpoint Not Met, Tolerance for Zone Cooling Setpoint Not Met Time
 Output Reporting Tolerances, 0.200, 0.200, 
! <Site:GroundTemperature:BuildingSurface>, Months From Jan to Dec {C}
 Site:GroundTemperature:BuildingSurface,  18.00,  18.00,  18.00,  18.00,  18.00,  18.00,  18.00,  18.00,  18.00,  18.00,  18.00,  18.00
! <Site:GroundTemperature:FCfactorMethod>, Months From Jan to Dec {C}
 Site:GroundTemperature:FCfactorMethod,   1.62,   0.54,   2.47,   5.49,  13.39,  19.49,  23.60,  24.85,  22.72,  17.98,  11.66,   5.79
! <Site:GroundTemperature:Shallow>, Months From Jan to Dec {C}
 Site:GroundTemperature:Shallow,  13.00,  13.00,  13.00,  13.00,  13.00,  13.00,  13.00,  13.00,  13.00,  13.00,  13.00,  13.00
! <Site:GroundTemperature:Deep>, Months From Jan to Dec {C}
 Site:GroundTemperature:Deep,  16.00,  16.00,  16.00,  16.00,  16.00,  16.00,  16.00,  16.00,  16.00,  16.00,  16.00,  16.00
! <Site:GroundReflectance>, Months From Jan to Dec {dimensionless}
 Site:GroundReflectance,  0.20,  0.20,  0.20,  0.20,  0.20,  0.20,  0.20,  0.20,  0.20,  0.20,  0.20,  0.20
! <Site:GroundReflectance:SnowModifier>, Normal, Daylighting {dimensionless}
 Site:GroundReflectance:SnowModifier,   1.000,   1.000
! <Site:GroundReflectance:Snow>, Months From Jan to Dec {dimensionless}
 Site:GroundReflectance:Snow,  0.20,  0.20,  0.20,  0.20,  0.20,  0.20,  0.20,  0.20,  0.20,  0.20,  0.20,  0.20
! <Site:GroundReflectance:Snow:Daylighting>, Months From Jan to Dec {dimensionless}
 Site:GroundReflectance:Snow:Daylighting,  0.20,  0.20,  0.20,  0.20,  0.20,  0.20,  0.20,  0.20,  0.20,  0.20,  0.20,  0.20
! <Environment:Weather Station>,Wind Sensor Height Above Ground {m},Wind Speed Profile Exponent {},Wind Speed Profile Boundary Layer Thickness {m},Air Temperature Sensor Height Above Ground {m},Wind Speed Modifier Coefficient [Internal],Temperature Modifier Coefficient [Internal]
Environment:Weather Station,10.000,0.140,270.000,1.500,1.586,9.750E-003
! <Site:Location>, Location Name, Latitude {N+/S- Deg}, Longitude {E+/W- Deg},  Time Zone Number {GMT+/-}, Elevation {m},  Standard Pressure at Elevation {Pa}, Standard RhoAir at Elevation
Site:Location,Philadelphia International Ap PA USA TMY3 WMO#=724080,39.87,-75.23,-5.00,2.00,101301,1.2040
! <Building Information>, Building Name,North Axis {deg},Terrain,  Loads Convergence Tolerance Value,Temperature Convergence Tolerance Value,  Solar Distribution,Maximum Number of Warmup Days,Minimum Number of Warmup Days
 Building Information,Medium Office,85.000,Suburbs,4.00000E-002,0.40000,FullExterior,25,6
! <Inside Convection Algorithm>, Algorithm {Simple | TARP | CeilingDiffuser | AdaptiveConvectionAlgorithm}
Inside Convection Algorithm,TARP
! <Outside Convection Algorithm>, Algorithm {SimpleCombined | TARP | MoWitt | DOE-2 | AdaptiveConvectionAlgorithm}
Outside Convection Algorithm,DOE-2
! <Sky Radiance Distribution>, Value {Anisotropic}
Sky Radiance Distribution,Anisotropic
! <Zone Air Solution Algorithm>, Value {ThirdOrderBackwardDifference | AnalyticalSolution | EulerMethod}
 Zone Air Solution Algorithm, AnalyticalSolution
! <Zone Air Contaminant Balance Simulation>, Simulation {Yes/No}, Carbon Dioxide Concentration
 Zone Air Carbon Dioxide Balance Simulation, No,N/A
! <Zone Air Contaminant Balance Simulation>, Simulation {Yes/No}, Generic Contaminant Concentration
 Zone Air Generic Contaminant Balance Simulation, No,N/A
! <Environment:Site Atmospheric Variation>,Wind Speed Profile Exponent {},Wind Speed Profile Boundary Layer Thickness {m},Air Temperature Gradient Coefficient {K/m}
Environment:Site Atmospheric Variation,0.220,370.000,6.500000E-003
! <SurfaceGeometry>,Starting Corner,Vertex Input Direction,Coordinate System,Daylight Reference Point Coordinate System,Rectangular (Simple) Surface Coordinate System
 Surface Geometry,UpperLeftCorner,Counterclockwise,RelativeCoordinateSystem,RelativeCoordinateSystem,RelativeToZoneOrigin
! <Surface Heat Transfer Algorithm>, Value {CTF - ConductionTransferFunction | EMPD - MoisturePenetrationDepthConductionTransferFunction | CondFD - ConductionFiniteDifference | HAMT - CombinedHeatAndMoistureFiniteElement} - Description,Inside Surface Max Temperature Limit{C}, Surface Convection Coefficient Lower Limit {W/m2-K}, Surface Convection Coefficient Upper Limit {W/m2-K}
Surface Heat Transfer Algorithm, CTF - ConductionTransferFunction,200,0.10,1000.0
! <Shading Summary>, Number of Fixed Detached Shades, Number of Building Detached Shades, Number of Attached Shades
 Shading Summary,0,0,0
! <Zone Summary>, Number of Zones, Number of Zone Surfaces, Number of SubSurfaces
 Zone Summary,22,505,86
! <Zone Information>,Zone Name,North Axis {deg},Origin X-Coordinate {m},Origin Y-Coordinate {m},Origin Z-Coordinate {m},Centroid X-Coordinate {m},Centroid Y-Coordinate {m},Centroid Z-Coordinate {m},Type,Zone Multiplier,Zone List Multiplier,Minimum X {m},Maximum X {m},Minimum Y {m},Maximum Y {m},Minimum Z {m},Maximum Z {m},Ceiling Height {m},Volume {m3},Zone Inside Convection Algorithm {Simple-Detailed-CeilingDiffuser-TrombeWall},Zone Outside Convection Algorithm {Simple-Detailed-Tarp-MoWitt-DOE-2-BLAST}, Floor Area {m2},Exterior Gross Wall Area {m2},Exterior Net Wall Area {m2},Exterior Window Area {m2}, Number of Surfaces, Number of SubSurfaces, Number of Shading SubSurfaces,  Part of Total Building Area
 Zone Information, 1ST_MID,0.0,44.67,20.70,4.06,28.04,-43.23,6.10,1,1,1,18.96,36.37,-51.66,-35.04,4.06,8.13,4.06,776.64,TARP,DOE-2,191.10,205.68,173.36,32.32,14,6,0,Yes
 Zone Information, 1ST_NORTH,0.0,10.30,5.18,4.06,8.69,-22.67,6.10,1,1,1,1.86,18.62,-41.38,-9.57,4.06,8.13,4.06,1495.55,TARP,DOE-2,368.00,215.23,151.24,63.99,13,2,0,Yes
 Zone Information, 1ST_SOUTH,0.0,81.38,5.18,4.06,13.05,-66.80,6.10,1,1,1,5.32,21.92,-80.99,-49.41,4.06,8.13,4.06,1487.31,TARP,DOE-2,365.97,242.09,178.30,63.80,14,2,0,Yes
 Zone Information, 2ND_MID,0.0,44.67,20.70,8.13,28.04,-43.23,10.16,1,1,1,18.96,36.37,-51.66,-35.04,8.13,12.19,4.06,776.64,TARP,DOE-2,191.10,205.68,183.11,22.57,14,6,0,Yes
 Zone Information, 2ND_NORTHBACK,0.0,10.30,5.18,8.13,10.38,-20.36,10.16,1,1,1,1.86,18.62,-37.11,-9.57,8.13,12.19,4.06,958.90,TARP,DOE-2,235.95,87.95,75.64,12.31,10,1,0,Yes
 Zone Information, 2ND_NORTHFRONT,0.0,41.62,5.18,8.13,5.32,-25.59,10.16,1,1,1,1.86,8.79,-41.38,-9.81,8.13,12.19,4.06,536.65,TARP,DOE-2,132.05,127.28,45.82,81.46,7,1,0,Yes
 Zone Information, 2ND_SOUTHBACK,0.0,81.39,7.77,8.13,15.53,-68.03,10.16,1,1,1,9.88,21.92,-80.62,-52.62,8.13,12.19,4.06,950.41,TARP,DOE-2,233.86,97.63,85.43,12.20,9,1,0,Yes
 Zone Information, 2ND_SOUTHFRONT,0.0,50.05,5.18,8.13,8.42,-61.00,10.16,1,1,1,4.59,12.26,-80.99,-41.01,8.13,12.19,4.06,681.39,TARP,DOE-2,167.67,178.74,75.31,103.42,11,2,0,Yes
 Zone Information, 3RD_MID,0.0,44.67,20.70,12.19,28.04,-43.23,14.22,1,1,1,18.96,36.37,-51.66,-35.04,12.19,16.26,4.06,776.64,TARP,DOE-2,191.10,205.68,181.78,23.89,14,6,0,Yes
 Zone Information, 3RD_NORTHBACK,0.0,10.30,5.18,12.19,10.38,-20.36,14.22,1,1,1,1.86,18.62,-37.11,-9.57,12.19,16.26,4.06,958.90,TARP,DOE-2,235.95,87.95,77.39,10.55,10,1,0,Yes
 Zone Information, 3RD_NORTHEND,0.0,10.30,0.97,12.19,10.95,-5.29,14.22,1,1,1,0.00,22.93,-10.26,1.93,12.19,16.26,4.06,924.60,TARP,DOE-2,227.51,204.80,184.87,19.92,9,4,0,Yes
 Zone Information, 3RD_NORTHFRONT,0.0,41.62,5.18,12.19,5.69,-29.79,14.22,1,1,1,1.86,9.52,-49.78,-9.81,12.19,16.26,4.06,681.15,TARP,DOE-2,167.61,161.55,117.93,43.62,11,2,0,Yes
 Zone Information, 3RD_SOUTHBACK,0.0,81.39,7.77,12.19,15.53,-68.03,14.22,1,1,1,9.88,21.92,-80.62,-52.62,12.19,16.26,4.06,950.41,TARP,DOE-2,233.86,97.63,87.18,10.45,9,1,0,Yes
 Zone Information, 3RD_SOUTHEND,0.0,81.39,22.12,12.19,18.56,-85.24,14.22,1,1,1,7.09,30.03,-91.33,-79.16,12.19,16.26,4.06,925.37,TARP,DOE-2,227.72,263.48,243.56,19.93,10,4,0,Yes
 Zone Information, 3RD_SOUTHFRONT,0.0,81.38,5.18,12.19,8.79,-65.20,14.22,1,1,1,5.32,12.26,-80.99,-49.41,12.19,16.26,4.06,536.89,TARP,DOE-2,132.11,144.46,110.09,34.38,7,1,0,Yes
 Zone Information, BSMT_NORTH,0.0,10.30,0.97,0.00,11.10,-14.96,2.03,1,1,1,0.00,22.93,-40.78,1.93,0.00,4.06,4.06,2004.63,TARP,DOE-2,493.27,308.64,242.45,66.19,21,6,0,Yes
 Zone Information, BSMT_SOUTH,0.0,54.17,7.77,0.00,16.93,-74.71,2.03,1,1,1,7.09,30.03,-91.33,-48.52,0.00,4.06,4.06,2003.21,TARP,DOE-2,492.94,377.84,311.63,66.20,23,6,0,Yes
 Zone Information, LOBBY_MID,0.0,41.62,5.18,0.00,14.87,-44.80,5.04,1,1,1,1.86,36.37,-80.99,-9.81,0.00,16.26,7.40,5082.35,TARP,DOE-2,687.16,728.26,689.55,38.71,82,10,0,Yes
 Zone Information, NORTHEND,0.0,10.30,0.97,4.06,11.09,-4.99,8.13,1,1,1,0.00,22.93,-10.26,1.93,4.06,12.19,8.13,1849.20,TARP,DOE-2,227.51,409.60,342.96,66.64,16,8,0,Yes
 Zone Information, SOUTHEND,0.0,81.39,22.12,4.06,18.56,-85.24,8.13,1,1,1,7.09,30.03,-91.33,-79.16,4.06,12.19,8.13,1850.74,TARP,DOE-2,227.72,526.97,460.32,66.65,18,8,0,Yes
 Zone Information, STAIR_NORTH,0.0,16.07,15.39,0.00,12.69,-12.11,8.13,1,1,1,8.64,16.73,-15.33,-8.89,0.00,16.26,16.26,716.53,TARP,DOE-2,44.08,94.14,76.25,17.89,18,4,0,Yes
 Zone Information, STAIR_SOUTH,0.0,81.39,15.39,0.00,18.38,-77.19,8.13,1,1,1,14.33,22.43,-80.40,-73.97,0.00,16.26,16.26,716.85,TARP,DOE-2,44.10,218.03,200.16,17.87,18,4,0,Yes
! <Zone Internal Gains/Equipment Information - Nominal>,Zone Name, Floor Area {m2},# Occupants,Area per Occupant {m2/person},Occupant per Area {person/m2},Interior Lighting {W/m2},Electric Load {W/m2},Gas Load {W/m2},Other Load {W/m2},Hot Water Eq {W/m2},Steam Equipment {W/m2},Sum Loads per Area {W/m2},Outdoor Controlled Baseboard Heat
 Zone Internal Gains, 1ST_MID,191.10,6.2,30.968,3.229E-002,9.917,9.847,0.000,0.000,0.000,0.000,19.764,No
 Zone Internal Gains, 1ST_NORTH,368.00,7.6,48.299,2.070E-002,8.143,6.901,0.000,0.000,0.000,0.000,15.044,No
 Zone Internal Gains, 1ST_SOUTH,365.97,7.6,48.462,2.063E-002,8.133,6.878,0.000,0.000,0.000,0.000,15.012,No
 Zone Internal Gains, 2ND_MID,191.10,6.2,30.968,3.229E-002,9.917,9.847,0.000,0.000,0.000,0.000,19.764,No
 Zone Internal Gains, 2ND_NORTHBACK,235.95,7.6,30.968,3.229E-002,9.688,10.764,0.000,0.000,0.000,0.000,20.451,No
 Zone Internal Gains, 2ND_NORTHFRONT,132.05,4.3,30.968,3.229E-002,9.688,10.764,0.000,0.000,0.000,0.000,20.451,No
 Zone Internal Gains, 2ND_SOUTHBACK,233.86,7.6,30.968,3.229E-002,9.688,10.764,0.000,0.000,0.000,0.000,20.451,No
 Zone Internal Gains, 2ND_SOUTHFRONT,167.67,5.4,30.968,3.229E-002,9.688,10.764,0.000,0.000,0.000,0.000,20.451,No
 Zone Internal Gains, 3RD_MID,191.10,0.5,363.677,2.750E-003,5.978,0.000,0.000,0.000,0.000,0.000,5.978,No
 Zone Internal Gains, 3RD_NORTHBACK,235.95,7.6,30.968,3.229E-002,9.688,10.764,0.000,0.000,0.000,0.000,20.451,No
 Zone Internal Gains, 3RD_NORTHEND,227.51,7.3,30.968,3.229E-002,9.688,10.764,0.000,0.000,0.000,0.000,20.451,No
 Zone Internal Gains, 3RD_NORTHFRONT,167.61,0.0,N/A,0.000,5.382,0.000,0.000,0.000,0.000,0.000,5.382,No
 Zone Internal Gains, 3RD_SOUTHBACK,233.86,0.0,N/A,0.000,5.382,0.000,0.000,0.000,0.000,0.000,5.382,No
 Zone Internal Gains, 3RD_SOUTHEND,227.72,0.0,N/A,0.000,5.382,0.000,0.000,0.000,0.000,0.000,5.382,No
 Zone Internal Gains, 3RD_SOUTHFRONT,132.11,0.0,N/A,0.000,5.382,0.000,0.000,0.000,0.000,0.000,5.382,No
 Zone Internal Gains, BSMT_NORTH,493.27,7.6,64.740,1.545E-002,9.244,5.149,0.000,0.000,0.000,0.000,14.392,No
 Zone Internal Gains, BSMT_SOUTH,492.94,14.9,33.071,3.024E-002,9.414,10.079,0.000,0.000,0.000,0.000,19.493,No
 Zone Internal Gains, LOBBY_MID,687.16,18.0,38.205,2.617E-002,16.213,7.472,0.000,0.000,0.000,0.000,23.685,No
 Zone Internal Gains, NORTHEND,227.51,14.7,15.484,6.458E-002,19.375,32.292,0.000,0.000,0.000,0.000,51.667,No
 Zone Internal Gains, SOUTHEND,227.72,7.4,30.968,3.229E-002,15.069,10.764,0.000,0.000,0.000,0.000,25.833,No
 Zone Internal Gains, STAIR_NORTH,44.08,1.4,30.968,3.229E-002,5.382,0.000,0.000,0.000,0.000,0.000,5.382,No
 Zone Internal Gains, STAIR_SOUTH,44.10,1.4,30.968,3.229E-002,5.382,0.000,0.000,0.000,0.000,0.000,5.382,No
! <People Internal Gains - Nominal>,Name,Schedule Name,Zone Name,Zone Floor Area {m2},# Zone Occupants,Number of People {},People/Floor Area {person/m2},Floor Area per person {m2/person},Fraction Radiant,Fraction Convected,Sensible Fraction Calculation,Activity level,ASHRAE 55 Warnings,Carbon Dioxide Generation Rate,Nominal Minimum Number of People,Nominal Maximum Number of People 
 People Internal Gains, PEOPLE 23,BLDG101_OFFICE_OCCSCHEDULE,1ST_MID,191.10,6.2,5.6,2.954E-002,33.850,0.300,0.700,AutoCalculate,MEDIUM OFFICE ACTIVITY,No,3.8200E-008,0,6
 People Internal Gains, PEOPLE 24,BLDG101_OFFICE_OCCSCHEDULE,1ST_MID,191.10,6.2,0.5,2.750E-003,363.677,0.300,0.700,AutoCalculate,MEDIUM OFFICE ACTIVITY,No,3.8200E-008,0,1
 People Internal Gains, PEOPLE 25,BLDG101_OFFICE_OCCSCHEDULE,1ST_NORTH,368.00,7.6,7.6,2.070E-002,48.299,0.300,0.700,AutoCalculate,MEDIUM OFFICE ACTIVITY,No,3.8200E-008,0,8
 People Internal Gains, PEOPLE 30,BLDG101_OFFICE_OCCSCHEDULE,1ST_SOUTH,365.97,7.6,7.6,2.063E-002,48.462,0.300,0.700,AutoCalculate,MEDIUM OFFICE ACTIVITY,No,3.8200E-008,0,8
 People Internal Gains, PEOPLE 28,BLDG101_OFFICE_OCCSCHEDULE,2ND_MID,191.10,6.2,0.5,2.750E-003,363.677,0.300,0.700,AutoCalculate,MEDIUM OFFICE ACTIVITY,No,3.8200E-008,0,1
 People Internal Gains, PEOPLE 29,BLDG101_OFFICE_OCCSCHEDULE,2ND_MID,191.10,6.2,5.6,2.954E-002,33.850,0.300,0.700,AutoCalculate,MEDIUM OFFICE ACTIVITY,No,3.8200E-008,0,6
 People Internal Gains, PEOPLE 26,BLDG101_OFFICE_OCCSCHEDULE,2ND_SOUTHFRONT,167.67,5.4,1.1,6.848E-003,146.029,0.300,0.700,AutoCalculate,MEDIUM OFFICE ACTIVITY,No,3.8200E-008,0,1
 People Internal Gains, PEOPLE 27,BLDG101_OFFICE_OCCSCHEDULE,2ND_SOUTHFRONT,167.67,5.4,4.3,2.544E-002,39.302,0.300,0.700,AutoCalculate,MEDIUM OFFICE ACTIVITY,No,3.8200E-008,0,4
 People Internal Gains, PEOPLE 13,BLDG101_OFFICE_OCCSCHEDULE,3RD_MID,191.10,0.5,0.5,2.750E-003,363.677,0.300,0.700,AutoCalculate,MEDIUM OFFICE ACTIVITY,No,3.8200E-008,0,1
 People Internal Gains, PEOPLE 33,BLDG101_OFFICE_OCCSCHEDULE,BSMT_NORTH,493.27,7.6,7.6,1.545E-002,64.740,0.300,0.700,AutoCalculate,MEDIUM OFFICE ACTIVITY,No,3.8200E-008,0,8
 People Internal Gains, PEOPLE 31,BLDG101_OFFICE_OCCSCHEDULE,BSMT_SOUTH,492.94,14.9,7.6,1.532E-002,65.275,0.300,0.700,AutoCalculate,MEDIUM OFFICE ACTIVITY,No,3.8200E-008,0,8
 People Internal Gains, PEOPLE 32,BLDG101_OFFICE_OCCSCHEDULE,BSMT_SOUTH,492.94,14.9,7.4,1.492E-002,67.034,0.300,0.700,AutoCalculate,MEDIUM OFFICE ACTIVITY,No,3.8200E-008,0,7
 People Internal Gains, PEOPLE 14,BLDG101_OFFICE_OCCSCHEDULE,LOBBY_MID,687.16,18.0,3.9,5.604E-003,178.441,0.300,0.700,AutoCalculate,MEDIUM OFFICE ACTIVITY,No,3.8200E-008,0,4
 People Internal Gains, PEOPLE 15,BLDG101_OFFICE_OCCSCHEDULE,LOBBY_MID,687.16,18.0,0.5,7.484E-004,1336.112,0.300,0.700,AutoCalculate,MEDIUM OFFICE ACTIVITY,No,3.8200E-008,0,1
 People Internal Gains, PEOPLE 16,BLDG101_OFFICE_OCCSCHEDULE,LOBBY_MID,687.16,18.0,3.9,5.604E-003,178.441,0.300,0.700,AutoCalculate,MEDIUM OFFICE ACTIVITY,No,3.8200E-008,0,4
 People Internal Gains, PEOPLE 17,BLDG101_OFFICE_OCCSCHEDULE,LOBBY_MID,687.16,18.0,0.5,7.484E-004,1336.112,0.300,0.700,AutoCalculate,MEDIUM OFFICE ACTIVITY,No,3.8200E-008,0,1
 People Internal Gains, PEOPLE 18,BLDG101_OFFICE_OCCSCHEDULE,LOBBY_MID,687.16,18.0,3.9,5.604E-003,178.441,0.300,0.700,AutoCalculate,MEDIUM OFFICE ACTIVITY,No,3.8200E-008,0,4
 People Internal Gains, PEOPLE 19,BLDG101_OFFICE_OCCSCHEDULE,LOBBY_MID,687.16,18.0,0.5,7.484E-004,1336.112,0.300,0.700,AutoCalculate,MEDIUM OFFICE ACTIVITY,No,3.8200E-008,0,1
 People Internal Gains, PEOPLE 20,BLDG101_OFFICE_OCCSCHEDULE,LOBBY_MID,687.16,18.0,3.9,5.604E-003,178.441,0.300,0.700,AutoCalculate,MEDIUM OFFICE ACTIVITY,No,3.8200E-008,0,4
 People Internal Gains, PEOPLE 21,BLDG101_OFFICE_OCCSCHEDULE,LOBBY_MID,687.16,18.0,0.5,7.647E-004,1307.701,0.300,0.700,AutoCalculate,MEDIUM OFFICE ACTIVITY,No,3.8200E-008,0,1
 People Internal Gains, PEOPLE 22,BLDG101_OFFICE_OCCSCHEDULE,LOBBY_MID,687.16,18.0,0.5,7.484E-004,1336.112,0.300,0.700,AutoCalculate,MEDIUM OFFICE ACTIVITY,No,3.8200E-008,0,1
 People Internal Gains, PEOPLE 11,BLDG101_OFFICE_OCCSCHEDULE,NORTHEND,227.51,14.7,7.3,3.229E-002,30.968,0.300,0.700,AutoCalculate,MEDIUM OFFICE ACTIVITY,No,3.8200E-008,0,7
 People Internal Gains, PEOPLE 12,BLDG101_OFFICE_OCCSCHEDULE,NORTHEND,227.51,14.7,7.3,3.229E-002,30.968,0.300,0.700,AutoCalculate,MEDIUM OFFICE ACTIVITY,No,3.8200E-008,0,7
 People Internal Gains, PEOPLE 34,BLDG101_OFFICE_OCCSCHEDULE,SOUTHEND,227.72,7.4,7.4,3.229E-002,30.968,0.300,0.700,AutoCalculate,MEDIUM OFFICE ACTIVITY,No,3.8200E-008,0,7
 People Internal Gains, 3RD_NORTHBACK PEOPLE 3,BLDG101_OFFICE_OCCSCHEDULE,3RD_NORTHBACK,235.95,7.6,7.6,3.229E-002,30.968,0.300,0.700,AutoCalculate,MEDIUM OFFICE ACTIVITY,No,3.8200E-008,0,8
 People Internal Gains, 2ND_NORTHBACK PEOPLE 2,BLDG101_OFFICE_OCCSCHEDULE,2ND_NORTHBACK,235.95,7.6,7.6,3.229E-002,30.968,0.300,0.700,AutoCalculate,MEDIUM OFFICE ACTIVITY,No,3.8200E-008,0,8
 People Internal Gains, 2ND_NORTHFRONT PEOPLE 2,BLDG101_OFFICE_OCCSCHEDULE,2ND_NORTHFRONT,132.05,4.3,4.3,3.229E-002,30.968,0.300,0.700,AutoCalculate,MEDIUM OFFICE ACTIVITY,No,3.8200E-008,0,4
 People Internal Gains, 2ND_SOUTHBACK PEOPLE 2,BLDG101_OFFICE_OCCSCHEDULE,2ND_SOUTHBACK,233.86,7.6,7.6,3.229E-002,30.968,0.300,0.700,AutoCalculate,MEDIUM OFFICE ACTIVITY,No,3.8200E-008,0,8
 People Internal Gains, 3RD_NORTHEND PEOPLE 2,BLDG101_OFFICE_OCCSCHEDULE,3RD_NORTHEND,227.51,7.3,7.3,3.229E-002,30.968,0.300,0.700,AutoCalculate,MEDIUM OFFICE ACTIVITY,No,3.8200E-008,0,7
 People Internal Gains, STAIR_NORTH PEOPLE 8,BLDG101_OFFICE_OCCSCHEDULE,STAIR_NORTH,44.08,1.4,1.4,3.229E-002,30.968,0.300,0.700,AutoCalculate,MEDIUM OFFICE ACTIVITY,No,3.8200E-008,0,1
 People Internal Gains, STAIR_SOUTH PEOPLE 8,BLDG101_OFFICE_OCCSCHEDULE,STAIR_SOUTH,44.10,1.4,1.4,3.229E-002,30.968,0.300,0.700,AutoCalculate,MEDIUM OFFICE ACTIVITY,No,3.8200E-008,0,1
! <Lights Internal Gains - Nominal>,Name,Schedule Name,Zone Name,Zone Floor Area {m2},# Zone Occupants,Lighting Level {W},Lights/Floor Area {W/m2},Lights per person {W/person},Fraction Return Air,Fraction Radiant,Fraction Short Wave,Fraction Convected,Fraction Replaceable,End-Use Category,Nominal Minimum Lighting Level {W},Nominal Maximum Lighting Level {W}
 Lights Internal Gains, LIGHTS 36,BLDG101_OFFICE_LIGHTSCHEDULE NIGHTLIGHTINGCONTROL 1,1ST_MID,191.10,6.2,1693.662,8.863,274.455,0.000,0.420,0.180,0.400,1.000,General,0.000,1693.662
 Lights Internal Gains, LIGHTS 37,BLDG101_OFFICE_LIGHTSCHEDULE NIGHTLIGHTINGCONTROL 2,1ST_MID,191.10,6.2,201.431,1.054,32.641,0.000,0.420,0.180,0.400,1.000,General,0.000,201.431
 Lights Internal Gains, LIGHTS 38,ALWAYS OFF,1ST_NORTH,368.00,7.6,710.688,1.931,93.276,0.000,0.420,0.180,0.400,1.000,General,0.000,0.000
 Lights Internal Gains, LIGHTS 39,BLDG101_OFFICE_LIGHTSCHEDULE NIGHTLIGHTINGCONTROL,1ST_NORTH,368.00,7.6,2285.758,6.211,300.000,0.000,0.420,0.180,0.400,1.000,General,0.000,2285.758
 Lights Internal Gains, LIGHTS 44,ALWAYS OFF,1ST_SOUTH,365.97,7.6,711.009,1.943,94.151,0.000,0.420,0.180,0.400,1.000,General,0.000,0.000
 Lights Internal Gains, LIGHTS 45,BLDG101_OFFICE_LIGHTSCHEDULE NIGHTLIGHTINGCONTROL,1ST_SOUTH,365.97,7.6,2265.532,6.190,300.000,0.000,0.420,0.180,0.400,1.000,General,0.000,2265.532
 Lights Internal Gains, LIGHTS 42,BLDG101_OFFICE_LIGHTSCHEDULE NIGHTLIGHTINGCONTROL 2,2ND_MID,191.10,6.2,201.431,1.054,32.641,0.000,0.420,0.180,0.400,1.000,General,0.000,201.431
 Lights Internal Gains, LIGHTS 43,BLDG101_OFFICE_LIGHTSCHEDULE NIGHTLIGHTINGCONTROL,2ND_MID,191.10,6.2,1693.662,8.863,274.455,0.000,0.420,0.180,0.400,1.000,General,0.000,1693.662
 Lights Internal Gains, LIGHTS 40,BLDG101_OFFICE_LIGHTSCHEDULE NIGHTLIGHTINGCONTROL 1,2ND_SOUTHFRONT,167.67,5.4,344.450,2.054,63.619,0.000,0.420,0.180,0.400,1.000,General,0.000,344.450
 Lights Internal Gains, LIGHTS 41,BLDG101_OFFICE_LIGHTSCHEDULE NIGHTLIGHTINGCONTROL,2ND_SOUTHFRONT,167.67,5.4,1279.817,7.633,236.381,0.000,0.420,0.180,0.400,1.000,General,0.000,1279.817
 Lights Internal Gains, LIGHTS 14,BLDG101_OFFICE_LIGHTSCHEDULE NIGHTLIGHTINGCONTROL 2,3RD_MID,191.10,0.5,201.431,1.054,383.333,0.000,0.420,0.180,0.400,1.000,General,0.000,201.431
 Lights Internal Gains, LIGHTS 15,ALWAYS OFF,3RD_MID,191.10,0.5,940.924,4.924,1790.628,0.000,0.420,0.180,0.400,1.000,General,0.000,0.000
 Lights Internal Gains, LIGHTS 49,ALWAYS ON,BSMT_NORTH,493.27,7.6,3174.663,6.436,416.667,0.000,0.420,0.180,0.400,1.000,General,3174.663,3174.663
 Lights Internal Gains, LIGHTS 50,ALWAYS OFF,BSMT_NORTH,493.27,7.6,160.417,0.325,21.054,0.000,0.420,0.180,0.400,1.000,General,0.000,0.000
 Lights Internal Gains, LIGHTS 51,ALWAYS OFF,BSMT_NORTH,493.27,7.6,1224.450,2.482,160.706,0.000,0.420,0.180,0.400,1.000,General,0.000,0.000
 Lights Internal Gains, LIGHTS 46,ALWAYS OFF,BSMT_SOUTH,492.94,14.9,168.750,0.342,11.321,0.000,0.420,0.180,0.400,1.000,General,0.000,0.000
 Lights Internal Gains, LIGHTS 47,BLDG101_OFFICE_LIGHTSCHEDULE NIGHTLIGHTINGCONTROL,BSMT_SOUTH,492.94,14.9,2265.532,4.596,151.994,0.000,0.420,0.180,0.400,1.000,General,0.000,2265.532
 Lights Internal Gains, LIGHTS 48,BLDG101_OFFICE_LIGHTSCHEDULE NIGHTLIGHTINGCONTROL,BSMT_SOUTH,492.94,14.9,2206.080,4.475,148.006,0.000,0.420,0.180,0.400,1.000,General,0.000,2206.080
 Lights Internal Gains, LIGHTS 16,ALWAYS ON,LOBBY_MID,687.16,18.0,1604.541,2.335,89.209,0.000,0.420,0.180,0.400,1.000,General,1604.541,1604.541
 Lights Internal Gains, LIGHTS 17,ALWAYS OFF,LOBBY_MID,687.16,18.0,191.361,0.278,10.639,0.000,0.420,0.180,0.400,1.000,General,0.000,0.000
 Lights Internal Gains, LIGHTS 18,ALWAYS OFF,LOBBY_MID,687.16,18.0,160.417,0.233,8.919,0.000,0.420,0.180,0.400,1.000,General,0.000,0.000
 Lights Internal Gains, LIGHTS 19,ALWAYS OFF,LOBBY_MID,687.16,18.0,168.750,0.246,9.382,0.000,0.420,0.180,0.400,1.000,General,0.000,0.000
 Lights Internal Gains, LIGHTS 20,BLDG101_OFFICE_LIGHTSCHEDULE NIGHTLIGHTINGCONTROL 2,LOBBY_MID,687.16,18.0,197.147,0.287,10.961,0.000,0.420,0.180,0.400,1.000,General,0.000,197.147
 Lights Internal Gains, LIGHTS 21,ALWAYS ON,LOBBY_MID,687.16,18.0,1604.541,2.335,89.209,0.000,0.420,0.180,0.400,1.000,General,1604.541,1604.541
 Lights Internal Gains, LIGHTS 22,ALWAYS OFF,LOBBY_MID,687.16,18.0,160.417,0.233,8.919,0.000,0.420,0.180,0.400,1.000,General,0.000,0.000
 Lights Internal Gains, LIGHTS 23,ALWAYS OFF,LOBBY_MID,687.16,18.0,168.750,0.246,9.382,0.000,0.420,0.180,0.400,1.000,General,0.000,0.000
 Lights Internal Gains, LIGHTS 24,BLDG101_OFFICE_LIGHTSCHEDULE NIGHTLIGHTINGCONTROL 2,LOBBY_MID,687.16,18.0,197.147,0.287,10.961,0.000,0.420,0.180,0.400,1.000,General,0.000,197.147
 Lights Internal Gains, LIGHTS 25,ALWAYS ON,LOBBY_MID,687.16,18.0,1604.541,2.335,89.209,0.000,0.420,0.180,0.400,1.000,General,1604.541,1604.541
 Lights Internal Gains, LIGHTS 26,ALWAYS OFF,LOBBY_MID,687.16,18.0,160.417,0.233,8.919,0.000,0.420,0.180,0.400,1.000,General,0.000,0.000
 Lights Internal Gains, LIGHTS 27,ALWAYS OFF,LOBBY_MID,687.16,18.0,168.750,0.246,9.382,0.000,0.420,0.180,0.400,1.000,General,0.000,0.000
 Lights Internal Gains, LIGHTS 28,BLDG101_OFFICE_LIGHTSCHEDULE NIGHTLIGHTINGCONTROL 2,LOBBY_MID,687.16,18.0,197.147,0.287,10.961,0.000,0.420,0.180,0.400,1.000,General,0.000,197.147
 Lights Internal Gains, LIGHTS 29,ALWAYS ON,LOBBY_MID,687.16,18.0,1604.541,2.335,89.209,0.000,0.420,0.180,0.400,1.000,General,1604.541,1604.541
 Lights Internal Gains, LIGHTS 30,ALWAYS OFF,LOBBY_MID,687.16,18.0,191.361,0.278,10.639,0.000,0.420,0.180,0.400,1.000,General,0.000,0.000
 Lights Internal Gains, LIGHTS 31,ALWAYS OFF,LOBBY_MID,687.16,18.0,710.688,1.034,39.513,0.000,0.420,0.180,0.400,1.000,General,0.000,0.000
 Lights Internal Gains, LIGHTS 32,ALWAYS OFF,LOBBY_MID,687.16,18.0,711.009,1.035,39.531,0.000,0.420,0.180,0.400,1.000,General,0.000,0.000
 Lights Internal Gains, LIGHTS 33,ALWAYS OFF,LOBBY_MID,687.16,18.0,940.924,1.369,52.313,0.000,0.420,0.180,0.400,1.000,General,0.000,0.000
 Lights Internal Gains, LIGHTS 34,BLDG101_OFFICE_LIGHTSCHEDULE NIGHTLIGHTINGCONTROL 2,LOBBY_MID,687.16,18.0,201.431,0.293,11.199,0.000,0.420,0.180,0.400,1.000,General,0.000,201.431
 Lights Internal Gains, LIGHTS 35,BLDG101_OFFICE_LIGHTSCHEDULE NIGHTLIGHTINGCONTROL 2,LOBBY_MID,687.16,18.0,197.147,0.287,10.961,0.000,0.420,0.180,0.400,1.000,General,0.000,197.147
 Lights Internal Gains, LIGHTS 12,BLDG101_OFFICE_LIGHTSCHEDULE NIGHTLIGHTINGCONTROL,NORTHEND,227.51,14.7,2204.009,9.688,150.000,0.000,0.420,0.180,0.400,1.000,General,0.000,2204.009
 Lights Internal Gains, LIGHTS 13,BLDG101_OFFICE_LIGHTSCHEDULE NIGHTLIGHTINGCONTROL,NORTHEND,227.51,14.7,2204.009,9.688,150.000,0.000,0.420,0.180,0.400,1.000,General,0.000,2204.009
 Lights Internal Gains, LIGHTS 52,BLDG101_OFFICE_LIGHTSCHEDULE NIGHTLIGHTINGCONTROL,SOUTHEND,227.72,7.4,2206.080,9.688,300.000,0.000,0.420,0.180,0.400,1.000,General,0.000,2206.080
 Lights Internal Gains, LIGHTS 53,ALWAYS OFF,SOUTHEND,227.72,7.4,1225.600,5.382,166.667,0.000,0.420,0.180,0.400,1.000,General,0.000,0.000
 Lights Internal Gains, 3RD_NORTHBACK LIGHTS 2,BLDG101_OFFICE_LIGHTSCHEDULE NIGHTLIGHTINGCONTROL 1,3RD_NORTHBACK,235.95,7.6,2285.758,9.688,300.000,0.000,0.420,0.180,0.400,1.000,General,0.000,2285.758
 Lights Internal Gains, 2ND_NORTHBACK LIGHTS 4,BLDG101_OFFICE_LIGHTSCHEDULE NIGHTLIGHTINGCONTROL,2ND_NORTHBACK,235.95,7.6,2285.758,9.688,300.000,0.000,0.420,0.180,0.400,1.000,General,0.000,2285.758
 Lights Internal Gains, 2ND_NORTHFRONT LIGHTS 4,BLDG101_OFFICE_LIGHTSCHEDULE NIGHTLIGHTINGCONTROL,2ND_NORTHFRONT,132.05,4.3,1279.237,9.688,300.000,0.000,0.420,0.180,0.400,1.000,General,0.000,1279.237
 Lights Internal Gains, 2ND_SOUTHBACK LIGHTS 4,BLDG101_OFFICE_LIGHTSCHEDULE NIGHTLIGHTINGCONTROL,2ND_SOUTHBACK,233.86,7.6,2265.532,9.688,300.000,0.000,0.420,0.180,0.400,1.000,General,0.000,2265.532
 Lights Internal Gains, 3RD_NORTHEND LIGHTS 4,BLDG101_OFFICE_LIGHTSCHEDULE NIGHTLIGHTINGCONTROL,3RD_NORTHEND,227.51,7.3,2204.009,9.688,300.000,0.000,0.420,0.180,0.400,1.000,General,0.000,2204.009
 Lights Internal Gains, STAIR_NORTH LIGHTS 6,ALWAYS ON,STAIR_NORTH,44.08,1.4,237.225,5.382,166.667,0.000,0.420,0.180,0.400,1.000,General,237.225,237.225
 Lights Internal Gains, STAIR_SOUTH LIGHTS 6,ALWAYS ON,STAIR_SOUTH,44.10,1.4,237.331,5.382,166.667,0.000,0.420,0.180,0.400,1.000,General,237.331,237.331
 Lights Internal Gains, 3RD_NORTHFRONT LIGHTS 11,ALWAYS OFF,3RD_NORTHFRONT,167.61,0.0,902.049,5.382,N/A,0.000,0.420,0.180,0.400,1.000,General,0.000,0.000
 Lights Internal Gains, 3RD_SOUTHBACK LIGHTS 11,ALWAYS OFF,3RD_SOUTHBACK,233.86,0.0,1258.629,5.382,N/A,0.000,0.420,0.180,0.400,1.000,General,0.000,0.000
 Lights Internal Gains, 3RD_SOUTHEND LIGHTS 11,ALWAYS OFF,3RD_SOUTHEND,227.72,0.0,1225.600,5.382,N/A,0.000,0.420,0.180,0.400,1.000,General,0.000,0.000
 Lights Internal Gains, 3RD_SOUTHFRONT LIGHTS 11,ALWAYS OFF,3RD_SOUTHFRONT,132.11,0.0,711.009,5.382,N/A,0.000,0.420,0.180,0.400,1.000,General,0.000,0.000
! <ElectricEquipment Internal Gains - Nominal>,Name,Schedule Name,Zone Name,Zone Floor Area {m2},# Zone Occupants,Equipment Level {W},Equipment/Floor Area {W/m2},Equipment per person {W/person},Fraction Latent,Fraction Radiant,Fraction Lost,Fraction Convected,End-Use SubCategory,Nominal Minimum Equipment Level {W},Nominal Maximum Equipment Level {W}
 ElectricEquipment Internal Gains, ELECTRIC EQUIPMENT 15,BLDG101_EQUIPMENTSCHEDULE,1ST_MID,191.10,6.2,1881.847,9.847,304.949,0.000,0.300,0.000,0.700,General,1127.208,1881.847
 ElectricEquipment Internal Gains, ELECTRIC EQUIPMENT 16,BLDG101_EQUIPMENTSCHEDULE,1ST_NORTH,368.00,7.6,2539.731,6.901,333.333,0.000,0.300,0.000,0.700,General,1521.273,2539.731
 ElectricEquipment Internal Gains, ELECTRIC EQUIPMENT 20,BLDG101_EQUIPMENTSCHEDULE,1ST_SOUTH,365.97,7.6,2517.258,6.878,333.333,0.000,0.300,0.000,0.700,General,1507.812,2517.258
 ElectricEquipment Internal Gains, ELECTRIC EQUIPMENT 19,BLDG101_EQUIPMENTSCHEDULE,2ND_MID,191.10,6.2,1881.847,9.847,304.949,0.000,0.300,0.000,0.700,General,1127.208,1881.847
 ElectricEquipment Internal Gains, ELECTRIC EQUIPMENT 17,BLDG101_EQUIPMENTSCHEDULE,2ND_SOUTHFRONT,167.67,5.4,382.722,2.283,70.688,0.000,0.300,0.000,0.700,General,229.247,382.722
 ElectricEquipment Internal Gains, ELECTRIC EQUIPMENT 18,BLDG101_EQUIPMENTSCHEDULE,2ND_SOUTHFRONT,167.67,5.4,1422.019,8.481,262.645,0.000,0.300,0.000,0.700,General,851.775,1422.019
 ElectricEquipment Internal Gains, ELECTRIC EQUIPMENT 23,ALWAYS ON DISCRETE,BSMT_NORTH,493.27,7.6,2539.731,5.149,333.333,0.000,0.300,0.000,0.700,General,2539.731,2539.731
 ElectricEquipment Internal Gains, ELECTRIC EQUIPMENT 21,BLDG101_EQUIPMENTSCHEDULE,BSMT_SOUTH,492.94,14.9,2517.258,5.107,168.883,0.000,0.300,0.000,0.700,General,1507.812,2517.258
 ElectricEquipment Internal Gains, ELECTRIC EQUIPMENT 22,BLDG101_EQUIPMENTSCHEDULE,BSMT_SOUTH,492.94,14.9,2451.200,4.973,164.451,0.000,0.300,0.000,0.700,General,1468.244,2451.200
 ElectricEquipment Internal Gains, ELECTRIC EQUIPMENT 11,ALWAYS ON DISCRETE,LOBBY_MID,687.16,18.0,1283.633,1.868,71.367,0.000,0.300,0.000,0.700,General,1283.633,1283.633
 ElectricEquipment Internal Gains, ELECTRIC EQUIPMENT 12,ALWAYS ON DISCRETE,LOBBY_MID,687.16,18.0,1283.633,1.868,71.367,0.000,0.300,0.000,0.700,General,1283.633,1283.633
 ElectricEquipment Internal Gains, ELECTRIC EQUIPMENT 13,ALWAYS ON DISCRETE,LOBBY_MID,687.16,18.0,1283.633,1.868,71.367,0.000,0.300,0.000,0.700,General,1283.633,1283.633
 ElectricEquipment Internal Gains, ELECTRIC EQUIPMENT 14,ALWAYS ON DISCRETE,LOBBY_MID,687.16,18.0,1283.633,1.868,71.367,0.000,0.300,0.000,0.700,General,1283.633,1283.633
 ElectricEquipment Internal Gains, ELECTRIC EQUIPMENT 10,BLDG101_EQUIPMENTSCHEDULE,NORTHEND,227.51,14.7,4897.799,21.528,333.333,0.000,0.300,0.000,0.700,General,2933.733,4897.799
 ElectricEquipment Internal Gains, ELECTRIC EQUIPMENT 9,BLDG101_EQUIPMENTSCHEDULE,NORTHEND,227.51,14.7,2448.899,10.764,166.667,0.000,0.300,0.000,0.700,General,1466.866,2448.899
 ElectricEquipment Internal Gains, ELECTRIC EQUIPMENT 24,BLDG101_EQUIPMENTSCHEDULE,SOUTHEND,227.72,7.4,2451.200,10.764,333.333,0.000,0.300,0.000,0.700,General,1468.244,2451.200
 ElectricEquipment Internal Gains, 3RD_NORTHBACK ELECTRIC EQUIPMENT 3,BLDG101_EQUIPMENTSCHEDULE,3RD_NORTHBACK,235.95,7.6,2539.731,10.764,333.333,0.000,0.300,0.000,0.700,General,1521.273,2539.731
 ElectricEquipment Internal Gains, 2ND_NORTHBACK ELECTRIC EQUIPMENT 1,BLDG101_EQUIPMENTSCHEDULE,2ND_NORTHBACK,235.95,7.6,2539.731,10.764,333.333,0.000,0.300,0.000,0.700,General,1521.273,2539.731
 ElectricEquipment Internal Gains, 2ND_NORTHFRONT ELECTRIC EQUIPMENT 1,BLDG101_EQUIPMENTSCHEDULE,2ND_NORTHFRONT,132.05,4.3,1421.375,10.764,333.333,0.000,0.300,0.000,0.700,General,851.389,1421.375
 ElectricEquipment Internal Gains, 2ND_SOUTHBACK ELECTRIC EQUIPMENT 1,BLDG101_EQUIPMENTSCHEDULE,2ND_SOUTHBACK,233.86,7.6,2517.258,10.764,333.333,0.000,0.300,0.000,0.700,General,1507.812,2517.258
 ElectricEquipment Internal Gains, 3RD_NORTHEND ELECTRIC EQUIPMENT 1,BLDG101_EQUIPMENTSCHEDULE,3RD_NORTHEND,227.51,7.3,2448.899,10.764,333.333,0.000,0.300,0.000,0.700,General,1466.866,2448.899
! <Shadowing/Sun Position Calculations> [Annual Simulations], Calculation Method,Value {days}, Allowable Number Figures in Shadow Overlap {}, Polygon Clipping Algorithm, Sky Diffuse Modeling Algorithm
Shadowing/Sun Position Calculations,AverageOverDaysInFrequency,7,15000,SutherlandHodgman,SimpleSkyDiffuseModeling
! <Water Heater Information>,Type,Name,Volume {m3},Maximum Capacity {W},Standard Rated Recovery Efficiency, Standard Rated Energy Factor
! <Infiltration Airflow Stats - Nominal>,Name,Schedule Name,Zone Name, Zone Floor Area {m2}, # Zone Occupants,Design Volume Flow Rate {m3/s},Volume Flow Rate/Floor Area {m3/s/m2},Volume Flow Rate/Exterior Surface Area {m3/s/m2},ACH - Air Changes per Hour,Equation A - Constant Term Coefficient {},Equation B - Temperature Term Coefficient {1/C},Equation C - Velocity Term Coefficient {s/m}, Equation D - Velocity Squared Term Coefficient {s2/m2}
 ZoneInfiltration Airflow Stats, BLDG101_INFILTRATIONDESIGNFLOWRATE2 30.0 PERCENT REDUCTION 7,ALWAYS ON,1ST_MID,191.10,6.2,2.813E-003,1.472E-005,1.368E-005,1.304E-002,1.000,0.000,0.000,0.000
 ZoneInfiltration Airflow Stats, BLDG101_INFILTRATIONDESIGNFLOWRATE3 30.0 PERCENT REDUCTION 1,ALWAYS ON,1ST_MID,191.10,6.2,2.369E-002,1.240E-004,1.152E-004,0.110,1.000,0.000,0.000,0.000
 ZoneInfiltration Airflow Stats, BLDG101_INFILTRATIONDESIGNFLOWRATE6 30.0 PERCENT REDUCTION 2,ALWAYS ON,1ST_NORTH,368.00,7.6,1.133E-002,3.080E-005,5.265E-005,2.728E-002,1.000,0.000,0.000,0.000
 ZoneInfiltration Airflow Stats, BLDG101_INFILTRATIONDESIGNFLOWRATE9 30.0 PERCENT REDUCTION 12,ALWAYS ON,1ST_NORTH,368.00,7.6,1.640E-002,4.457E-005,7.620E-005,3.948E-002,1.000,0.000,0.000,0.000
 ZoneInfiltration Airflow Stats, BLDG101_INFILTRATIONDESIGNFLOWRATE6 30.0 PERCENT REDUCTION 5,ALWAYS ON,1ST_SOUTH,365.97,7.6,1.258E-002,3.437E-005,5.196E-005,3.045E-002,1.000,0.000,0.000,0.000
 ZoneInfiltration Airflow Stats, BLDG101_INFILTRATIONDESIGNFLOWRATE9 30.0 PERCENT REDUCTION 13,ALWAYS ON,1ST_SOUTH,365.97,7.6,1.861E-002,5.086E-005,7.689E-005,4.506E-002,1.000,0.000,0.000,0.000
 ZoneInfiltration Airflow Stats, BLDG101_INFILTRATIONDESIGNFLOWRATE2 30.0 PERCENT REDUCTION 8,ALWAYS ON,2ND_MID,191.10,6.2,2.813E-003,1.472E-005,1.368E-005,1.304E-002,1.000,0.000,0.000,0.000
 ZoneInfiltration Airflow Stats, BLDG101_INFILTRATIONDESIGNFLOWRATE6 30.0 PERCENT REDUCTION 4,ALWAYS ON,2ND_MID,191.10,6.2,2.369E-002,1.240E-004,1.152E-004,0.110,1.000,0.000,0.000,0.000
 ZoneInfiltration Airflow Stats, BLDG101_INFILTRATIONDESIGNFLOWRATE3 30.0 PERCENT REDUCTION 2,ALWAYS ON,2ND_SOUTHFRONT,167.67,5.4,4.416E-003,2.634E-005,2.471E-005,2.333E-002,1.000,0.000,0.000,0.000
 ZoneInfiltration Airflow Stats, BLDG101_INFILTRATIONDESIGNFLOWRATE6 30.0 PERCENT REDUCTION 3,ALWAYS ON,2ND_SOUTHFRONT,167.67,5.4,1.861E-002,1.110E-004,1.041E-004,9.835E-002,1.000,0.000,0.000,0.000
 ZoneInfiltration Airflow Stats, BLDG101_INFILTRATIONDESIGNFLOWRATE2 30.0 PERCENT REDUCTION 1,ALWAYS ON,3RD_MID,191.10,0.5,4.910E-003,2.569E-005,1.237E-005,2.276E-002,1.000,0.000,0.000,0.000
 ZoneInfiltration Airflow Stats, BLDG101_INFILTRATIONDESIGNFLOWRATE9 1 30.0 PERCENT REDUCTION 1,ALWAYS ON,3RD_MID,191.10,0.5,4.622E-002,2.418E-004,1.165E-004,0.214,1.000,0.000,0.000,0.000
 ZoneInfiltration Airflow Stats, BLDG101_INFILTRATIONDESIGNFLOWRATE5 30.0 PERCENT REDUCTION 5,ALWAYS ON,BSMT_NORTH,493.27,7.6,1.133E-002,2.297E-005,3.672E-005,2.035E-002,1.000,0.000,0.000,0.000
 ZoneInfiltration Airflow Stats, BLDG101_INFILTRATIONDESIGNFLOWRATE9 30.0 PERCENT REDUCTION 15,ALWAYS ON,BSMT_NORTH,493.27,7.6,2.048E-003,4.153E-006,6.637E-006,3.679E-003,1.000,0.000,0.000,0.000
 ZoneInfiltration Airflow Stats, BLDG101_INFILTRATIONDESIGNFLOWRATE9 30.0 PERCENT REDUCTION 16,ALWAYS ON,BSMT_NORTH,493.27,7.6,2.639E-002,5.350E-005,8.550E-005,4.739E-002,1.000,0.000,0.000,0.000
 ZoneInfiltration Airflow Stats, BLDG101_INFILTRATIONDESIGNFLOWRATE6 30.0 PERCENT REDUCTION 6,ALWAYS ON,BSMT_SOUTH,492.94,14.9,1.258E-002,2.552E-005,3.330E-005,2.261E-002,1.000,0.000,0.000,0.000
 ZoneInfiltration Airflow Stats, BLDG101_INFILTRATIONDESIGNFLOWRATE6 30.0 PERCENT REDUCTION 7,ALWAYS ON,BSMT_SOUTH,492.94,14.9,3.395E-002,6.887E-005,8.986E-005,6.101E-002,1.000,0.000,0.000,0.000
 ZoneInfiltration Airflow Stats, BLDG101_INFILTRATIONDESIGNFLOWRATE9 30.0 PERCENT REDUCTION 14,ALWAYS ON,BSMT_SOUTH,492.94,14.9,2.155E-003,4.371E-006,5.703E-006,3.872E-003,1.000,0.000,0.000,0.000
 ZoneInfiltration Airflow Stats, BLDG101_INFILTRATIONDESIGNFLOWRATE2 30.0 PERCENT REDUCTION 2,ALWAYS ON,LOBBY_MID,687.16,18.0,2.720E-003,3.958E-006,2.942E-006,1.927E-003,1.000,0.000,0.000,0.000
 ZoneInfiltration Airflow Stats, BLDG101_INFILTRATIONDESIGNFLOWRATE2 30.0 PERCENT REDUCTION 3,ALWAYS ON,LOBBY_MID,687.16,18.0,2.720E-003,3.958E-006,2.942E-006,1.927E-003,1.000,0.000,0.000,0.000
 ZoneInfiltration Airflow Stats, BLDG101_INFILTRATIONDESIGNFLOWRATE2 30.0 PERCENT REDUCTION 4,ALWAYS ON,LOBBY_MID,687.16,18.0,4.772E-003,6.945E-006,5.162E-006,3.380E-003,1.000,0.000,0.000,0.000
 ZoneInfiltration Airflow Stats, BLDG101_INFILTRATIONDESIGNFLOWRATE2 30.0 PERCENT REDUCTION 5,ALWAYS ON,LOBBY_MID,687.16,18.0,2.813E-003,4.094E-006,3.043E-006,1.993E-003,1.000,0.000,0.000,0.000
 ZoneInfiltration Airflow Stats, BLDG101_INFILTRATIONDESIGNFLOWRATE2 30.0 PERCENT REDUCTION 6,ALWAYS ON,LOBBY_MID,687.16,18.0,2.720E-003,3.958E-006,2.942E-006,1.927E-003,1.000,0.000,0.000,0.000
 ZoneInfiltration Airflow Stats, BLDG101_INFILTRATIONDESIGNFLOWRATE5 30.0 PERCENT REDUCTION 1,ALWAYS ON,LOBBY_MID,687.16,18.0,0.000,0.000,0.000,0.000,1.000,0.000,0.000,0.000
 ZoneInfiltration Airflow Stats, BLDG101_INFILTRATIONDESIGNFLOWRATE5 30.0 PERCENT REDUCTION 2,ALWAYS ON,LOBBY_MID,687.16,18.0,0.000,0.000,0.000,0.000,1.000,0.000,0.000,0.000
 ZoneInfiltration Airflow Stats, BLDG101_INFILTRATIONDESIGNFLOWRATE5 30.0 PERCENT REDUCTION 3,ALWAYS ON,LOBBY_MID,687.16,18.0,1.537E-002,2.236E-005,1.662E-005,1.088E-002,1.000,0.000,0.000,0.000
 ZoneInfiltration Airflow Stats, BLDG101_INFILTRATIONDESIGNFLOWRATE5 30.0 PERCENT REDUCTION 4,ALWAYS ON,LOBBY_MID,687.16,18.0,0.000,0.000,0.000,0.000,1.000,0.000,0.000,0.000
 ZoneInfiltration Airflow Stats, BLDG101_INFILTRATIONDESIGNFLOWRATE9 30.0 PERCENT REDUCTION 1,ALWAYS ON,LOBBY_MID,687.16,18.0,4.416E-003,6.426E-006,4.776E-006,3.128E-003,1.000,0.000,0.000,0.000
 ZoneInfiltration Airflow Stats, BLDG101_INFILTRATIONDESIGNFLOWRATE9 30.0 PERCENT REDUCTION 10,ALWAYS ON,LOBBY_MID,687.16,18.0,1.861E-002,2.709E-005,2.013E-005,1.319E-002,1.000,0.000,0.000,0.000
 ZoneInfiltration Airflow Stats, BLDG101_INFILTRATIONDESIGNFLOWRATE9 30.0 PERCENT REDUCTION 11,ALWAYS ON,LOBBY_MID,687.16,18.0,2.369E-002,3.447E-005,2.562E-005,1.678E-002,1.000,0.000,0.000,0.000
 ZoneInfiltration Airflow Stats, BLDG101_INFILTRATIONDESIGNFLOWRATE9 30.0 PERCENT REDUCTION 2,ALWAYS ON,LOBBY_MID,687.16,18.0,2.048E-003,2.981E-006,2.215E-006,1.451E-003,1.000,0.000,0.000,0.000
 ZoneInfiltration Airflow Stats, BLDG101_INFILTRATIONDESIGNFLOWRATE9 30.0 PERCENT REDUCTION 3,ALWAYS ON,LOBBY_MID,687.16,18.0,2.155E-003,3.136E-006,2.331E-006,1.526E-003,1.000,0.000,0.000,0.000
 ZoneInfiltration Airflow Stats, BLDG101_INFILTRATIONDESIGNFLOWRATE9 30.0 PERCENT REDUCTION 4,ALWAYS ON,LOBBY_MID,687.16,18.0,2.048E-003,2.981E-006,2.215E-006,1.451E-003,1.000,0.000,0.000,0.000
 ZoneInfiltration Airflow Stats, BLDG101_INFILTRATIONDESIGNFLOWRATE9 30.0 PERCENT REDUCTION 5,ALWAYS ON,LOBBY_MID,687.16,18.0,2.155E-003,3.136E-006,2.331E-006,1.526E-003,1.000,0.000,0.000,0.000
 ZoneInfiltration Airflow Stats, BLDG101_INFILTRATIONDESIGNFLOWRATE9 30.0 PERCENT REDUCTION 6,ALWAYS ON,LOBBY_MID,687.16,18.0,5.889E-003,8.570E-006,6.369E-006,4.171E-003,1.000,0.000,0.000,0.000
 ZoneInfiltration Airflow Stats, BLDG101_INFILTRATIONDESIGNFLOWRATE9 30.0 PERCENT REDUCTION 7,ALWAYS ON,LOBBY_MID,687.16,18.0,6.195E-003,9.015E-006,6.700E-006,4.388E-003,1.000,0.000,0.000,0.000
 ZoneInfiltration Airflow Stats, BLDG101_INFILTRATIONDESIGNFLOWRATE9 30.0 PERCENT REDUCTION 8,ALWAYS ON,LOBBY_MID,687.16,18.0,4.416E-003,6.426E-006,4.776E-006,3.128E-003,1.000,0.000,0.000,0.000
 ZoneInfiltration Airflow Stats, BLDG101_INFILTRATIONDESIGNFLOWRATE9 30.0 PERCENT REDUCTION 9,ALWAYS ON,LOBBY_MID,687.16,18.0,1.640E-002,2.387E-005,1.774E-005,1.162E-002,1.000,0.000,0.000,0.000
 ZoneInfiltration Airflow Stats, BLDG101_INFILTRATIONDESIGNFLOWRATE4 30.0 PERCENT REDUCTION 1,ALWAYS ON,NORTHEND,227.51,14.7,2.639E-002,1.160E-004,6.443E-005,5.137E-002,1.000,0.000,0.000,0.000
 ZoneInfiltration Airflow Stats, BLDG101_INFILTRATIONDESIGNFLOWRATE6 30.0 PERCENT REDUCTION 1,ALWAYS ON,NORTHEND,227.51,14.7,2.639E-002,1.160E-004,6.443E-005,5.137E-002,1.000,0.000,0.000,0.000
 ZoneInfiltration Airflow Stats, BLDG101_INFILTRATIONDESIGNFLOWRATE6 30.0 PERCENT REDUCTION 8,ALWAYS ON,SOUTHEND,227.72,7.4,3.395E-002,1.491E-004,6.443E-005,6.604E-002,1.000,0.000,0.000,0.000
 ZoneInfiltration Airflow Stats, BLDG101_INFILTRATIONDESIGNFLOWRATE9 1 30.0 PERCENT REDUCTION 2,ALWAYS ON,SOUTHEND,227.72,7.4,3.395E-002,1.491E-004,6.443E-005,6.604E-002,1.000,0.000,0.000,0.000
 ZoneInfiltration Airflow Stats, 3RD_NORTHBACK BLDG101_INFILTRATIONDESIGNFLOWRATE3 30.0 PERCENT REDUCTION,ALWAYS ON,3RD_NORTHBACK,235.95,7.6,4.174E-002,1.769E-004,1.289E-004,0.157,1.000,0.000,0.000,0.000
 ZoneInfiltration Airflow Stats, 2ND_NORTHBACK BLDG101_INFILTRATIONDESIGNFLOWRATE6 30.0 PERCENT REDUCTION,ALWAYS ON,2ND_NORTHBACK,235.95,7.6,1.133E-002,4.803E-005,1.289E-004,4.255E-002,1.000,0.000,0.000,0.000
 ZoneInfiltration Airflow Stats, 2ND_NORTHFRONT BLDG101_INFILTRATIONDESIGNFLOWRATE6 30.0 PERCENT REDUCTION,ALWAYS ON,2ND_NORTHFRONT,132.05,4.3,1.640E-002,1.242E-004,1.289E-004,0.110,1.000,0.000,0.000,0.000
 ZoneInfiltration Airflow Stats, 2ND_SOUTHBACK BLDG101_INFILTRATIONDESIGNFLOWRATE6 30.0 PERCENT REDUCTION,ALWAYS ON,2ND_SOUTHBACK,233.86,7.6,1.258E-002,5.379E-005,1.289E-004,4.765E-002,1.000,0.000,0.000,0.000
 ZoneInfiltration Airflow Stats, 3RD_NORTHEND BLDG101_INFILTRATIONDESIGNFLOWRATE6 30.0 PERCENT REDUCTION,ALWAYS ON,3RD_NORTHEND,227.51,7.3,5.571E-002,2.448E-004,1.289E-004,0.217,1.000,0.000,0.000,0.000
 ZoneInfiltration Airflow Stats, STAIR_NORTH BLDG101_INFILTRATIONDESIGNFLOWRATE8 30.0 PERCENT REDUCTION,ALWAYS ON,STAIR_NORTH,44.08,1.4,1.781E-002,4.041E-004,1.289E-004,8.948E-002,1.000,0.000,0.000,0.000
 ZoneInfiltration Airflow Stats, STAIR_SOUTH BLDG101_INFILTRATIONDESIGNFLOWRATE8 30.0 PERCENT REDUCTION,ALWAYS ON,STAIR_SOUTH,44.10,1.4,3.378E-002,7.660E-004,1.289E-004,0.170,1.000,0.000,0.000,0.000
 ZoneInfiltration Airflow Stats, 3RD_NORTHFRONT BLDG101_INFILTRATIONDESIGNFLOWRATE9 1 30.0 PERCENT REDUCTION,ALWAYS ON,3RD_NORTHFRONT,167.61,0.0,4.241E-002,2.531E-004,1.289E-004,0.224,1.000,0.000,0.000,0.000
 ZoneInfiltration Airflow Stats, 3RD_SOUTHBACK BLDG101_INFILTRATIONDESIGNFLOWRATE9 1 30.0 PERCENT REDUCTION,ALWAYS ON,3RD_SOUTHBACK,233.86,0.0,4.271E-002,1.826E-004,1.289E-004,0.162,1.000,0.000,0.000,0.000
 ZoneInfiltration Airflow Stats, 3RD_SOUTHEND BLDG101_INFILTRATIONDESIGNFLOWRATE9 1 30.0 PERCENT REDUCTION,ALWAYS ON,3RD_SOUTHEND,227.72,0.0,6.329E-002,2.779E-004,1.289E-004,0.246,1.000,0.000,0.000,0.000
 ZoneInfiltration Airflow Stats, 3RD_SOUTHFRONT BLDG101_INFILTRATIONDESIGNFLOWRATE9 1 30.0 PERCENT REDUCTION,ALWAYS ON,3RD_SOUTHFRONT,132.11,0.0,3.564E-002,2.698E-004,1.289E-004,0.239,1.000,0.000,0.000,0.000
! <AirFlow Model>, Simple
 AirFlow Model, Simple
! <RoomAir Model>, Zone Name, Mixing/Mundt/UCSDDV/UCSDCV/UCSDUFI/UCSDUFE/User Defined
RoomAir Model,1ST_MID,Mixing/Well-Stirred
RoomAir Model,1ST_NORTH,Mixing/Well-Stirred
RoomAir Model,1ST_SOUTH,Mixing/Well-Stirred
RoomAir Model,2ND_MID,Mixing/Well-Stirred
RoomAir Model,2ND_NORTHBACK,Mixing/Well-Stirred
RoomAir Model,2ND_NORTHFRONT,Mixing/Well-Stirred
RoomAir Model,2ND_SOUTHBACK,Mixing/Well-Stirred
RoomAir Model,2ND_SOUTHFRONT,Mixing/Well-Stirred
RoomAir Model,3RD_MID,Mixing/Well-Stirred
RoomAir Model,3RD_NORTHBACK,Mixing/Well-Stirred
RoomAir Model,3RD_NORTHEND,Mixing/Well-Stirred
RoomAir Model,3RD_NORTHFRONT,Mixing/Well-Stirred
RoomAir Model,3RD_SOUTHBACK,Mixing/Well-Stirred
RoomAir Model,3RD_SOUTHEND,Mixing/Well-Stirred
RoomAir Model,3RD_SOUTHFRONT,Mixing/Well-Stirred
RoomAir Model,BSMT_NORTH,Mixing/Well-Stirred
RoomAir Model,BSMT_SOUTH,Mixing/Well-Stirred
RoomAir Model,LOBBY_MID,Mixing/Well-Stirred
RoomAir Model,NORTHEND,Mixing/Well-Stirred
RoomAir Model,SOUTHEND,Mixing/Well-Stirred
RoomAir Model,STAIR_NORTH,Mixing/Well-Stirred
RoomAir Model,STAIR_SOUTH,Mixing/Well-Stirred
! <AirflowNetwork Model:Control>, No Multizone or Distribution/Multizone with Distribution/Multizone without Distribution/Multizone with Distribution only during Fan Operation
AirflowNetwork Model:Control,NoMultizoneOrDistribution
! <Zone Volume Capacitance Multiplier>, Sensible Heat Capacity Multiplier, Moisture Capacity Multiplier, Carbon Dioxide Capacity Multiplier, Generic Contaminant Capacity Multiplier
Zone Volume Capacitance Multiplier,   1.000 ,   1.000,   1.000,   1.000
! <Load Timesteps in Zone Design Calculation Averaging Window>, Value
 Load Timesteps in Zone Design Calculation Averaging Window,    4
! <Heating Sizing Factor Information>, Sizing Factor ID, Value
 Heating Sizing Factor Information, Global,  1.00000    
! <Cooling Sizing Factor Information>, Sizing Factor ID, Value
 Cooling Sizing Factor Information, Global,  1.00000    
! <Zone Sizing Information>, Zone Name, Load Type, Calc Des Load {W}, User Des Load {W}, Calc Des Air Flow Rate {m3/s}, User Des Air Flow Rate {m3/s}, Design Day Name, Date/Time of Peak, Temperature at Peak {C}, Humidity Ratio at Peak {kgWater/kgDryAir}, Floor Area {m2}, # Occupants, Calc Outdoor Air Flow Rate {m3/s}
 Zone Sizing Information, 1ST_MID, Cooling, 6110.09056, 6110.09056, 0.52662, 0.52662, PHILADELPHIA NE PHILADELPHIA ANN CLG .4% CONDNS DB=>MWB, 7/21 14:15:00, 33.90000, 1.52669E-002, 191.10195, 6.17101, 0.16111
 Zone Sizing Information, 1ST_MID, Heating, 3648.28380, 3648.28380, 0.22281, 0.22281, PHILADELPHIA NE PHILADELPHIA ANN HTG 99.6% CONDNS DB, 1/21 08:00:00, -11.70000, 1.37849E-003, 191.10195, 6.17101, 0.16111
 Zone Sizing Information, 1ST_NORTH, Cooling, 13147.40406, 13147.40406, 1.13302, 1.13302, PHILADELPHIA NE PHILADELPHIA ANN CLG .4% CONDNS DB=>MWB, 7/21 16:45:00, 32.66400, 1.52669E-002, 367.99876, 7.61919, 0.28474
 Zone Sizing Information, 1ST_NORTH, Heating, 5556.73791, 5556.73791, 0.45253, 0.45253, PHILADELPHIA NE PHILADELPHIA ANN HTG 99.6% CONDNS DB, 1/21 08:00:00, -11.70000, 1.37849E-003, 367.99876, 7.61919, 0.28474
 Zone Sizing Information, 1ST_SOUTH, Cooling, 13196.55409, 13196.55409, 1.13727, 1.13727, PHILADELPHIA NE PHILADELPHIA ANN CLG .4% CONDNS DB=>MWB, 7/21 16:45:00, 32.66400, 1.52669E-002, 365.97077, 7.55177, 0.28230
 Zone Sizing Information, 1ST_SOUTH, Heating, 5964.17403, 5964.17403, 0.48570, 0.48570, PHILADELPHIA NE PHILADELPHIA ANN HTG 99.6% CONDNS DB, 1/21 08:00:00, -11.70000, 1.37849E-003, 365.97077, 7.55177, 0.28230
 Zone Sizing Information, 2ND_MID, Cooling, 5851.82070, 5851.82070, 0.50437, 0.50437, PHILADELPHIA NE PHILADELPHIA ANN CLG .4% CONDNS DB=>MWB, 7/21 14:45:00, 33.90000, 1.52669E-002, 191.10195, 6.17101, 0.22328
 Zone Sizing Information, 2ND_MID, Heating, 3347.20489, 3347.20489, 0.14018, 0.22328, PHILADELPHIA NE PHILADELPHIA ANN HTG 99.6% CONDNS DB, 1/21 08:00:00, -11.70000, 1.37849E-003, 191.10195, 6.17101, 0.22328
 Zone Sizing Information, 2ND_NORTHBACK, Cooling, 6788.92535, 6788.92535, 0.58506, 0.58506, PHILADELPHIA NE PHILADELPHIA ANN CLG .4% CONDNS DB=>MWB, 7/21 09:00:00, 28.23500, 1.52669E-002, 235.94871, 7.61919, 0.27568
 Zone Sizing Information, 2ND_NORTHBACK, Heating, 1227.46768, 1227.46768, 0.10585, 0.27568, PHILADELPHIA NE PHILADELPHIA ANN HTG 99.6% CONDNS DB, 1/21 08:00:00, -11.70000, 1.37849E-003, 235.94871, 7.61919, 0.27568
 Zone Sizing Information, 2ND_NORTHFRONT, Cooling, 14756.20908, 14756.20908, 1.27172, 1.27172, PHILADELPHIA NE PHILADELPHIA ANN CLG .4% CONDNS DB=>MWB, 7/21 17:00:00, 32.45800, 1.52669E-002, 132.05006, 4.26413, 0.15429
 Zone Sizing Information, 2ND_NORTHFRONT, Heating, 5547.52723, 5547.52723, 0.45176, 0.45176, PHILADELPHIA NE PHILADELPHIA ANN HTG 99.6% CONDNS DB, 1/21 08:00:00, -11.70000, 1.37849E-003, 132.05006, 4.26413, 0.15429
 Zone Sizing Information, 2ND_SOUTHBACK, Cooling, 6600.08905, 6600.08905, 0.56879, 0.56879, PHILADELPHIA NE PHILADELPHIA ANN CLG .4% CONDNS DB=>MWB, 7/21 09:15:00, 28.67275, 1.52669E-002, 233.86090, 7.55177, 0.27324
 Zone Sizing Information, 2ND_SOUTHBACK, Heating, 1354.92002, 1354.92002, 0.11035, 0.27324, PHILADELPHIA NE PHILADELPHIA ANN HTG 99.6% CONDNS DB, 1/21 08:00:00, -11.70000, 1.37849E-003, 233.86090, 7.55177, 0.27324
 Zone Sizing Information, 2ND_SOUTHFRONT, Cooling, 18744.03217, 18744.03217, 1.61542, 1.61542, PHILADELPHIA NE PHILADELPHIA ANN CLG .4% CONDNS DB=>MWB, 7/21 17:00:00, 32.45800, 1.52669E-002, 167.66594, 5.41422, 0.18326
 Zone Sizing Information, 2ND_SOUTHFRONT, Heating, 7321.53905, 7321.53905, 0.59621, 0.59621, PHILADELPHIA NE PHILADELPHIA ANN HTG 99.6% CONDNS DB, 1/21 08:00:00, -11.70000, 1.37849E-003, 167.66594, 5.41422, 0.18326
 Zone Sizing Information, 3RD_MID, Cooling, 3982.02658, 3982.02658, 0.34323, 0.34323, PHILADELPHIA NE PHILADELPHIA ANN CLG .4% CONDNS DB=>MWB, 7/21 15:45:00, 33.43650, 1.52669E-002, 191.10195, 0.52547, 0.22328
 Zone Sizing Information, 3RD_MID, Heating, 6946.35691, 6946.35691, 0.42416, 0.42416, PHILADELPHIA NE PHILADELPHIA ANN HTG 99.6% CONDNS DB, 1/21 24:00:00, -11.70000, 1.37849E-003, 191.10195, 0.52547, 0.22328
 Zone Sizing Information, 3RD_NORTHBACK, Cooling, 7896.07046, 7896.07046, 0.68059, 0.68059, PHILADELPHIA NE PHILADELPHIA ANN CLG .4% CONDNS DB=>MWB, 7/21 15:15:00, 33.74550, 1.52669E-002, 235.94871, 7.61919, 0.19178
 Zone Sizing Information, 3RD_NORTHBACK, Heating, 3911.86557, 3911.86557, 0.31853, 0.31853, PHILADELPHIA NE PHILADELPHIA ANN HTG 99.6% CONDNS DB, 1/21 08:00:00, -11.70000, 1.37849E-003, 235.94871, 7.61919, 0.19178
 Zone Sizing Information, 3RD_NORTHEND, Cooling, 8736.49861, 8736.49861, 0.75310, 0.75310, PHILADELPHIA NE PHILADELPHIA ANN CLG .4% CONDNS DB=>MWB, 7/21 15:45:00, 33.43650, 1.52669E-002, 227.51019, 7.34670, 0.26582
 Zone Sizing Information, 3RD_NORTHEND, Heating, 5861.67112, 5861.67112, 0.37349, 0.37349, PHILADELPHIA NE PHILADELPHIA ANN HTG 99.6% CONDNS DB, 1/21 08:00:00, -11.70000, 1.37849E-003, 227.51019, 7.34670, 0.26582
 Zone Sizing Information, 3RD_NORTHFRONT, Cooling, 8608.07716, 8608.07716, 0.74192, 0.74192, PHILADELPHIA NE PHILADELPHIA ANN CLG .4% CONDNS DB=>MWB, 7/21 16:45:00, 32.66400, 1.52669E-002, 167.60612, 0.00000, 0.19583
 Zone Sizing Information, 3RD_NORTHFRONT, Heating, 7327.06794, 7327.06794, 0.59657, 0.59657, PHILADELPHIA NE PHILADELPHIA ANN HTG 99.6% CONDNS DB, 1/21 24:00:00, -11.70000, 1.37849E-003, 167.60612, 0.00000, 0.19583
 Zone Sizing Information, 3RD_SOUTHBACK, Cooling, 3083.46798, 3083.46798, 0.26575, 0.27324, PHILADELPHIA NE PHILADELPHIA ANN CLG .4% CONDNS DB=>MWB, 7/21 15:15:00, 33.74550, 1.52669E-002, 233.86090, 0.00000, 0.27324
 Zone Sizing Information, 3RD_SOUTHBACK, Heating, 5404.00775, 5404.00775, 0.44002, 0.44002, PHILADELPHIA NE PHILADELPHIA ANN HTG 99.6% CONDNS DB, 1/21 24:00:00, -11.70000, 1.37849E-003, 233.86090, 0.00000, 0.27324
 Zone Sizing Information, 3RD_SOUTHEND, Cooling, 4122.70728, 4122.70728, 0.35536, 0.35536, PHILADELPHIA NE PHILADELPHIA ANN CLG .4% CONDNS DB=>MWB, 7/21 15:30:00, 33.59100, 1.52669E-002, 227.72390, 0.00000, 0.26607
 Zone Sizing Information, 3RD_SOUTHEND, Heating, 8139.67282, 8139.67282, 0.51862, 0.51862, PHILADELPHIA NE PHILADELPHIA ANN HTG 99.6% CONDNS DB, 1/21 24:00:00, -11.70000, 1.37849E-003, 227.72390, 0.00000, 0.26607
 Zone Sizing Information, 3RD_SOUTHFRONT, Cooling, 6742.62254, 6742.62254, 0.58115, 0.58115, PHILADELPHIA NE PHILADELPHIA ANN CLG .4% CONDNS DB=>MWB, 7/21 16:45:00, 32.66400, 1.52669E-002, 132.10988, 0.00000, 0.15436
 Zone Sizing Information, 3RD_SOUTHFRONT, Heating, 6046.31229, 6046.31229, 0.49228, 0.49228, PHILADELPHIA NE PHILADELPHIA ANN HTG 99.6% CONDNS DB, 1/21 24:00:00, -11.70000, 1.37849E-003, 132.10988, 0.00000, 0.15436
 Zone Sizing Information, BSMT_NORTH, Cooling, 10428.14049, 10428.14049, 0.89868, 0.89868, PHILADELPHIA NE PHILADELPHIA ANN CLG .4% CONDNS DB=>MWB, 7/21 09:15:00, 28.67275, 1.52669E-002, 493.26529, 7.61919, 0.18306
 Zone Sizing Information, BSMT_NORTH, Heating, 3757.84055, 3757.84055, 0.22952, 0.22952, PHILADELPHIA NE PHILADELPHIA ANN HTG 99.6% CONDNS DB, 1/21 24:00:00, -11.70000, 1.37849E-003, 493.26529, 7.61919, 0.18306
 Zone Sizing Information, BSMT_SOUTH, Cooling, 14174.07823, 14174.07823, 1.22159, 1.22159, PHILADELPHIA NE PHILADELPHIA ANN CLG .4% CONDNS DB=>MWB, 7/21 15:30:00, 33.59100, 1.52669E-002, 492.93957, 14.90537, 0.54147
 Zone Sizing Information, BSMT_SOUTH, Heating, 6876.80111, 6876.80111, 0.56001, 0.56001, PHILADELPHIA NE PHILADELPHIA ANN HTG 99.6% CONDNS DB, 1/21 08:00:00, -11.70000, 1.37849E-003, 492.93957, 14.90537, 0.54147
 Zone Sizing Information, LOBBY_MID, Cooling, 20404.50648, 20404.50648, 1.75845, 1.75845, PHILADELPHIA NE PHILADELPHIA ANN CLG .4% CONDNS DB=>MWB, 7/21 16:15:00, 33.07600, 1.52669E-002, 687.15909, 17.98625, 0.26123
 Zone Sizing Information, LOBBY_MID, Heating, 6619.07179, 6619.07179, 0.40428, 0.40428, PHILADELPHIA NE PHILADELPHIA ANN HTG 99.6% CONDNS DB, 1/21 24:00:00, -11.70000, 1.37849E-003, 687.15909, 17.98625, 0.26123
 Zone Sizing Information, NORTHEND, Cooling, 17362.96223, 17362.96223, 1.49648, 1.49648, PHILADELPHIA NE PHILADELPHIA ANN CLG .4% CONDNS DB=>MWB, 7/21 16:30:00, 32.87000, 1.52669E-002, 227.51019, 14.69340, 0.26582
 Zone Sizing Information, NORTHEND, Heating, 5715.13657, 5715.13657, 0.34905, 0.34905, PHILADELPHIA NE PHILADELPHIA ANN HTG 99.6% CONDNS DB, 1/21 08:00:00, -11.70000, 1.37849E-003, 227.51019, 14.69340, 0.26582
 Zone Sizing Information, SOUTHEND, Cooling, 10949.22387, 10949.22387, 0.94369, 0.94369, PHILADELPHIA NE PHILADELPHIA ANN CLG .4% CONDNS DB=>MWB, 7/21 15:45:00, 33.43650, 1.52669E-002, 227.72390, 7.35360, 0.26607
 Zone Sizing Information, SOUTHEND, Heating, 10183.73830, 10183.73830, 0.62193, 0.62193, PHILADELPHIA NE PHILADELPHIA ANN HTG 99.6% CONDNS DB, 1/21 24:00:00, -11.70000, 1.37849E-003, 227.72390, 7.35360, 0.26607
 Zone Sizing Information, STAIR_NORTH, Cooling, 3193.68577, 3193.68577, 0.27523, 0.27523, PHILADELPHIA NE PHILADELPHIA ANN CLG .4% CONDNS DB=>MWB, 7/21 09:00:00, 28.23500, 1.52669E-002, 44.07783, 1.42335, 1.11958E-002
 Zone Sizing Information, STAIR_NORTH, Heating, 2941.54765, 2941.54765, 0.23955, 0.23955, PHILADELPHIA NE PHILADELPHIA ANN HTG 99.6% CONDNS DB, 1/21 15:30:00, -11.70000, 1.37849E-003, 44.07783, 1.42335, 1.11958E-002
 Zone Sizing Information, STAIR_SOUTH, Cooling, 3000.27380, 3000.27380, 0.25860, 0.25860, PHILADELPHIA NE PHILADELPHIA ANN CLG .4% CONDNS DB=>MWB, 7/21 08:30:00, 27.25650, 1.52669E-002, 44.09755, 1.42399, 1.12008E-002
 Zone Sizing Information, STAIR_SOUTH, Heating, 4496.23302, 4496.23302, 0.36610, 0.36610, PHILADELPHIA NE PHILADELPHIA ANN HTG 99.6% CONDNS DB, 1/21 24:00:00, -11.70000, 1.37849E-003, 44.09755, 1.42399, 1.12008E-002
! <System Sizing Information>, System Name, Field Description, Value
 System Sizing Information, PACKAGED ROOFTOP VAV WITH REHEAT AHU1, Calculated Cooling Design Air Flow Rate [m3/s], 3.13267
 System Sizing Information, PACKAGED ROOFTOP VAV WITH REHEAT AHU1, User Cooling Design Air Flow Rate [m3/s], 3.13267
 System Sizing Information, PACKAGED ROOFTOP VAV WITH REHEAT AHU1, Calculated Heating Design Air Flow Rate [m3/s], 1.27453
 System Sizing Information, PACKAGED ROOFTOP VAV WITH REHEAT AHU1, User Heating Design Air Flow Rate [m3/s], 1.27453
 System Sizing Information, PACKAGED ROOFTOP VAV WITH REHEAT AHU2, Calculated Cooling Design Air Flow Rate [m3/s], 6.95511
 System Sizing Information, PACKAGED ROOFTOP VAV WITH REHEAT AHU2, User Cooling Design Air Flow Rate [m3/s], 6.95511
 System Sizing Information, PACKAGED ROOFTOP VAV WITH REHEAT AHU2, Calculated Heating Design Air Flow Rate [m3/s], 4.35411
 System Sizing Information, PACKAGED ROOFTOP VAV WITH REHEAT AHU2, User Heating Design Air Flow Rate [m3/s], 4.35411
 System Sizing Information, PACKAGED ROOFTOP VAV WITH REHEAT AHU3, Calculated Cooling Design Air Flow Rate [m3/s], 7.83580
 System Sizing Information, PACKAGED ROOFTOP VAV WITH REHEAT AHU3, User Cooling Design Air Flow Rate [m3/s], 7.83580
 System Sizing Information, PACKAGED ROOFTOP VAV WITH REHEAT AHU3, Calculated Heating Design Air Flow Rate [m3/s], 3.28668
 System Sizing Information, PACKAGED ROOFTOP VAV WITH REHEAT AHU3, User Heating Design Air Flow Rate [m3/s], 3.28668
! <Component Sizing Information>, Component Type, Component Name, Input Field Description, Value
 Component Sizing Information, AirTerminal:SingleDuct:VAV:Reheat, AIR TERMINAL SINGLE DUCT VAV REHEAT 1ST_MID, Design Size Maximum Air Flow Rate [m3/s], 0.52662
 Component Sizing Information, AirTerminal:SingleDuct:VAV:Reheat, AIR TERMINAL SINGLE DUCT VAV REHEAT 1ST_MID, User-Specified Maximum Air Flow Rate [m3/s], 1.55743
 Component Sizing Information, AirTerminal:SingleDuct:VAV:Reheat, AIR TERMINAL SINGLE DUCT VAV REHEAT 1ST_MID, Design Size Maximum Flow Fraction during Reheat [], 0.24933
 Component Sizing Information, AirTerminal:SingleDuct:VAV:Reheat, AIR TERMINAL SINGLE DUCT VAV REHEAT 1ST_MID, User-Specified Maximum Flow Fraction during Reheat [], 1.00000
! <Water Heating Coil Capacity Information>,Component Type,Name,Nominal Total Capacity {W}
Water Heating Coil Capacity Information,Coil:Heating:Water,COIL HEATING WATER 1ST_MID,8022.32
 Component Sizing Information, AirTerminal:SingleDuct:VAV:Reheat, AIR TERMINAL SINGLE DUCT VAV REHEAT 1ST_NORTH, Design Size Maximum Air Flow Rate [m3/s], 1.13302
 Component Sizing Information, AirTerminal:SingleDuct:VAV:Reheat, AIR TERMINAL SINGLE DUCT VAV REHEAT 1ST_NORTH, User-Specified Maximum Air Flow Rate [m3/s], 1.88779
 Component Sizing Information, AirTerminal:SingleDuct:VAV:Reheat, AIR TERMINAL SINGLE DUCT VAV REHEAT 1ST_NORTH, Design Size Maximum Flow Fraction during Reheat [], 0.39611
 Component Sizing Information, AirTerminal:SingleDuct:VAV:Reheat, AIR TERMINAL SINGLE DUCT VAV REHEAT 1ST_NORTH, User-Specified Maximum Flow Fraction during Reheat [], 1.00000
Water Heating Coil Capacity Information,Coil:Heating:Water,COIL HEATING WATER 1ST_NORTH,13833.76
 Component Sizing Information, AirTerminal:SingleDuct:VAV:Reheat, AIR TERMINAL SINGLE DUCT VAV REHEAT 1ST_SOUTH, Design Size Maximum Air Flow Rate [m3/s], 1.13727
 Component Sizing Information, AirTerminal:SingleDuct:VAV:Reheat, AIR TERMINAL SINGLE DUCT VAV REHEAT 1ST_SOUTH, User-Specified Maximum Air Flow Rate [m3/s], 1.88779
 Component Sizing Information, AirTerminal:SingleDuct:VAV:Reheat, AIR TERMINAL SINGLE DUCT VAV REHEAT 1ST_SOUTH, Design Size Maximum Flow Fraction during Reheat [], 0.39393
 Component Sizing Information, AirTerminal:SingleDuct:VAV:Reheat, AIR TERMINAL SINGLE DUCT VAV REHEAT 1ST_SOUTH, User-Specified Maximum Flow Fraction during Reheat [], 1.00000
Water Heating Coil Capacity Information,Coil:Heating:Water,COIL HEATING WATER 1ST_SOUTH,13833.76
 Component Sizing Information, AirTerminal:SingleDuct:VAV:Reheat, AIR TERMINAL SINGLE DUCT VAV REHEAT 2ND_MID, Design Size Maximum Air Flow Rate [m3/s], 0.50437
 Component Sizing Information, AirTerminal:SingleDuct:VAV:Reheat, AIR TERMINAL SINGLE DUCT VAV REHEAT 2ND_MID, User-Specified Maximum Air Flow Rate [m3/s], 1.60462
 Component Sizing Information, AirTerminal:SingleDuct:VAV:Reheat, AIR TERMINAL SINGLE DUCT VAV REHEAT 2ND_MID, Design Size Maximum Flow Fraction during Reheat [], 0.25000
 Component Sizing Information, AirTerminal:SingleDuct:VAV:Reheat, AIR TERMINAL SINGLE DUCT VAV REHEAT 2ND_MID, User-Specified Maximum Flow Fraction during Reheat [], 1.00000
Water Heating Coil Capacity Information,Coil:Heating:Water,COIL HEATING WATER 2ND_MID,13003.39
 Component Sizing Information, AirTerminal:SingleDuct:VAV:Reheat, AIR TERMINAL SINGLE DUCT VAV REHEAT 2ND_NORTHBACK, Design Size Maximum Air Flow Rate [m3/s], 0.58506
 Component Sizing Information, AirTerminal:SingleDuct:VAV:Reheat, AIR TERMINAL SINGLE DUCT VAV REHEAT 2ND_NORTHBACK, User-Specified Maximum Air Flow Rate [m3/s], 1.41584
 Component Sizing Information, AirTerminal:SingleDuct:VAV:Reheat, AIR TERMINAL SINGLE DUCT VAV REHEAT 2ND_NORTHBACK, Design Size Maximum Flow Fraction during Reheat [], 0.33863
 Component Sizing Information, AirTerminal:SingleDuct:VAV:Reheat, AIR TERMINAL SINGLE DUCT VAV REHEAT 2ND_NORTHBACK, User-Specified Maximum Flow Fraction during Reheat [], 1.00000
Water Heating Coil Capacity Information,Coil:Heating:Water,COIL HEATING WATER 2ND_NORTHBACK,9683.78
 Component Sizing Information, AirTerminal:SingleDuct:VAV:Reheat, AIR TERMINAL SINGLE DUCT VAV REHEAT 2ND_NORTHFRONT, Design Size Maximum Air Flow Rate [m3/s], 1.27172
 Component Sizing Information, AirTerminal:SingleDuct:VAV:Reheat, AIR TERMINAL SINGLE DUCT VAV REHEAT 2ND_NORTHFRONT, User-Specified Maximum Air Flow Rate [m3/s], 1.88779
 Component Sizing Information, AirTerminal:SingleDuct:VAV:Reheat, AIR TERMINAL SINGLE DUCT VAV REHEAT 2ND_NORTHFRONT, Design Size Maximum Flow Fraction during Reheat [], 0.35000
 Component Sizing Information, AirTerminal:SingleDuct:VAV:Reheat, AIR TERMINAL SINGLE DUCT VAV REHEAT 2ND_NORTHFRONT, User-Specified Maximum Flow Fraction during Reheat [], 1.00000
Water Heating Coil Capacity Information,Coil:Heating:Water,COIL HEATING WATER 2ND_NORTHFRONT,13833.76
 Component Sizing Information, AirTerminal:SingleDuct:VAV:Reheat, AIR TERMINAL SINGLE DUCT VAV REHEAT 2ND_SOUTHBACK, Design Size Maximum Air Flow Rate [m3/s], 0.56879
 Component Sizing Information, AirTerminal:SingleDuct:VAV:Reheat, AIR TERMINAL SINGLE DUCT VAV REHEAT 2ND_SOUTHBACK, User-Specified Maximum Air Flow Rate [m3/s], 1.41584
 Component Sizing Information, AirTerminal:SingleDuct:VAV:Reheat, AIR TERMINAL SINGLE DUCT VAV REHEAT 2ND_SOUTHBACK, Design Size Maximum Flow Fraction during Reheat [], 0.33563
 Component Sizing Information, AirTerminal:SingleDuct:VAV:Reheat, AIR TERMINAL SINGLE DUCT VAV REHEAT 2ND_SOUTHBACK, User-Specified Maximum Flow Fraction during Reheat [], 1.00000
Water Heating Coil Capacity Information,Coil:Heating:Water,COIL HEATING WATER 2ND_SOUTHBACK,9683.78
 Component Sizing Information, AirTerminal:SingleDuct:VAV:Reheat, AIR TERMINAL SINGLE DUCT VAV REHEAT 2ND_SOUTHFRONT, Design Size Maximum Air Flow Rate [m3/s], 1.61542
 Component Sizing Information, AirTerminal:SingleDuct:VAV:Reheat, AIR TERMINAL SINGLE DUCT VAV REHEAT 2ND_SOUTHFRONT, User-Specified Maximum Air Flow Rate [m3/s], 1.88779
 Component Sizing Information, AirTerminal:SingleDuct:VAV:Reheat, AIR TERMINAL SINGLE DUCT VAV REHEAT 2ND_SOUTHFRONT, Design Size Maximum Flow Fraction during Reheat [], 0.35000
 Component Sizing Information, AirTerminal:SingleDuct:VAV:Reheat, AIR TERMINAL SINGLE DUCT VAV REHEAT 2ND_SOUTHFRONT, User-Specified Maximum Flow Fraction during Reheat [], 1.00000
Water Heating Coil Capacity Information,Coil:Heating:Water,COIL HEATING WATER 2ND_SOUTHFRONT,13833.76
 Component Sizing Information, AirTerminal:SingleDuct:VAV:Reheat, AIR TERMINAL SINGLE DUCT VAV REHEAT 3RD_MID, Design Size Maximum Air Flow Rate [m3/s], 0.42416
 Component Sizing Information, AirTerminal:SingleDuct:VAV:Reheat, AIR TERMINAL SINGLE DUCT VAV REHEAT 3RD_MID, User-Specified Maximum Air Flow Rate [m3/s], 3.77558
 Component Sizing Information, AirTerminal:SingleDuct:VAV:Reheat, AIR TERMINAL SINGLE DUCT VAV REHEAT 3RD_MID, Design Size Maximum Flow Fraction during Reheat [], 0.31000
 Component Sizing Information, AirTerminal:SingleDuct:VAV:Reheat, AIR TERMINAL SINGLE DUCT VAV REHEAT 3RD_MID, User-Specified Maximum Flow Fraction during Reheat [], 1.00000
Water Heating Coil Capacity Information,Coil:Heating:Water,COIL HEATING WATER 3RD_MID,29046.33
 Component Sizing Information, AirTerminal:SingleDuct:VAV:Reheat, AIR TERMINAL SINGLE DUCT VAV REHEAT 3RD_NORTHBACK, Design Size Maximum Air Flow Rate [m3/s], 0.68059
 Component Sizing Information, AirTerminal:SingleDuct:VAV:Reheat, AIR TERMINAL SINGLE DUCT VAV REHEAT 3RD_NORTHBACK, User-Specified Maximum Air Flow Rate [m3/s], 1.88779
 Component Sizing Information, AirTerminal:SingleDuct:VAV:Reheat, AIR TERMINAL SINGLE DUCT VAV REHEAT 3RD_NORTHBACK, Design Size Maximum Flow Fraction during Reheat [], 0.35000
 Component Sizing Information, AirTerminal:SingleDuct:VAV:Reheat, AIR TERMINAL SINGLE DUCT VAV REHEAT 3RD_NORTHBACK, User-Specified Maximum Flow Fraction during Reheat [], 1.00000
Water Heating Coil Capacity Information,Coil:Heating:Water,COIL HEATING WATER 3RD_NORTHBACK,13833.76
 Component Sizing Information, AirTerminal:SingleDuct:VAV:Reheat, AIR TERMINAL SINGLE DUCT VAV REHEAT 3RD_NORTHEND, Design Size Maximum Air Flow Rate [m3/s], 0.75310
 Component Sizing Information, AirTerminal:SingleDuct:VAV:Reheat, AIR TERMINAL SINGLE DUCT VAV REHEAT 3RD_NORTHEND, User-Specified Maximum Air Flow Rate [m3/s], 1.88779
 Component Sizing Information, AirTerminal:SingleDuct:VAV:Reheat, AIR TERMINAL SINGLE DUCT VAV REHEAT 3RD_NORTHEND, Design Size Maximum Flow Fraction during Reheat [], 0.38000
 Component Sizing Information, AirTerminal:SingleDuct:VAV:Reheat, AIR TERMINAL SINGLE DUCT VAV REHEAT 3RD_NORTHEND, User-Specified Maximum Flow Fraction during Reheat [], 1.00000
Water Heating Coil Capacity Information,Coil:Heating:Water,COIL HEATING WATER 3RD_NORTHEND,17151.47
 Component Sizing Information, AirTerminal:SingleDuct:VAV:Reheat, AIR TERMINAL SINGLE DUCT VAV REHEAT 3RD_NORTHFRONT, Design Size Maximum Air Flow Rate [m3/s], 0.74192
 Component Sizing Information, AirTerminal:SingleDuct:VAV:Reheat, AIR TERMINAL SINGLE DUCT VAV REHEAT 3RD_NORTHFRONT, User-Specified Maximum Air Flow Rate [m3/s], 1.88779
 Component Sizing Information, AirTerminal:SingleDuct:VAV:Reheat, AIR TERMINAL SINGLE DUCT VAV REHEAT 3RD_NORTHFRONT, Design Size Maximum Flow Fraction during Reheat [], 0.35000
 Component Sizing Information, AirTerminal:SingleDuct:VAV:Reheat, AIR TERMINAL SINGLE DUCT VAV REHEAT 3RD_NORTHFRONT, User-Specified Maximum Flow Fraction during Reheat [], 1.00000
Water Heating Coil Capacity Information,Coil:Heating:Water,COIL HEATING WATER 3RD_NORTHFRONT,13833.76
 Component Sizing Information, AirTerminal:SingleDuct:VAV:Reheat, AIR TERMINAL SINGLE DUCT VAV REHEAT 3RD_SOUTHBACK, Design Size Maximum Air Flow Rate [m3/s], 0.44002
 Component Sizing Information, AirTerminal:SingleDuct:VAV:Reheat, AIR TERMINAL SINGLE DUCT VAV REHEAT 3RD_SOUTHBACK, User-Specified Maximum Air Flow Rate [m3/s], 1.88779
 Component Sizing Information, AirTerminal:SingleDuct:VAV:Reheat, AIR TERMINAL SINGLE DUCT VAV REHEAT 3RD_SOUTHBACK, Design Size Maximum Flow Fraction during Reheat [], 0.35000
 Component Sizing Information, AirTerminal:SingleDuct:VAV:Reheat, AIR TERMINAL SINGLE DUCT VAV REHEAT 3RD_SOUTHBACK, User-Specified Maximum Flow Fraction during Reheat [], 1.00000
Water Heating Coil Capacity Information,Coil:Heating:Water,COIL HEATING WATER 3RD_SOUTHBACK,13833.76
 Component Sizing Information, AirTerminal:SingleDuct:VAV:Reheat, AIR TERMINAL SINGLE DUCT VAV REHEAT 3RD_SOUTHEND, Design Size Maximum Air Flow Rate [m3/s], 0.51862
 Component Sizing Information, AirTerminal:SingleDuct:VAV:Reheat, AIR TERMINAL SINGLE DUCT VAV REHEAT 3RD_SOUTHEND, User-Specified Maximum Air Flow Rate [m3/s], 1.88779
 Component Sizing Information, AirTerminal:SingleDuct:VAV:Reheat, AIR TERMINAL SINGLE DUCT VAV REHEAT 3RD_SOUTHEND, Design Size Maximum Flow Fraction during Reheat [], 0.38000
 Component Sizing Information, AirTerminal:SingleDuct:VAV:Reheat, AIR TERMINAL SINGLE DUCT VAV REHEAT 3RD_SOUTHEND, User-Specified Maximum Flow Fraction during Reheat [], 1.00000
Water Heating Coil Capacity Information,Coil:Heating:Water,COIL HEATING WATER 3RD_SOUTHEND,17151.47
 Component Sizing Information, AirTerminal:SingleDuct:VAV:Reheat, AIR TERMINAL SINGLE DUCT VAV REHEAT 3RD_SOUTHFRONT, Design Size Maximum Air Flow Rate [m3/s], 0.58115
 Component Sizing Information, AirTerminal:SingleDuct:VAV:Reheat, AIR TERMINAL SINGLE DUCT VAV REHEAT 3RD_SOUTHFRONT, User-Specified Maximum Air Flow Rate [m3/s], 1.88779
 Component Sizing Information, AirTerminal:SingleDuct:VAV:Reheat, AIR TERMINAL SINGLE DUCT VAV REHEAT 3RD_SOUTHFRONT, Design Size Maximum Flow Fraction during Reheat [], 0.14220
 Component Sizing Information, AirTerminal:SingleDuct:VAV:Reheat, AIR TERMINAL SINGLE DUCT VAV REHEAT 3RD_SOUTHFRONT, User-Specified Maximum Flow Fraction during Reheat [], 1.00000
Water Heating Coil Capacity Information,Coil:Heating:Water,COIL HEATING WATER 3RD_SOUTHFRONT,13833.76
 Component Sizing Information, AirTerminal:SingleDuct:VAV:Reheat, AIR TERMINAL SINGLE DUCT VAV REHEAT BSMT_NORTH, Design Size Maximum Air Flow Rate [m3/s], 0.89868
 Component Sizing Information, AirTerminal:SingleDuct:VAV:Reheat, AIR TERMINAL SINGLE DUCT VAV REHEAT BSMT_NORTH, User-Specified Maximum Air Flow Rate [m3/s], 1.41584
 Component Sizing Information, AirTerminal:SingleDuct:VAV:Reheat, AIR TERMINAL SINGLE DUCT VAV REHEAT BSMT_NORTH, Design Size Maximum Flow Fraction during Reheat [], 0.70793
 Component Sizing Information, AirTerminal:SingleDuct:VAV:Reheat, AIR TERMINAL SINGLE DUCT VAV REHEAT BSMT_NORTH, User-Specified Maximum Flow Fraction during Reheat [], 1.00000
Water Heating Coil Capacity Information,Coil:Heating:Water,COIL HEATING WATER BSMT_NORTH,16597.90
 Component Sizing Information, AirTerminal:SingleDuct:VAV:Reheat, AIR TERMINAL SINGLE DUCT VAV REHEAT BSMT_SOUTH, Design Size Maximum Air Flow Rate [m3/s], 1.22159
 Component Sizing Information, AirTerminal:SingleDuct:VAV:Reheat, AIR TERMINAL SINGLE DUCT VAV REHEAT BSMT_SOUTH, User-Specified Maximum Air Flow Rate [m3/s], 1.88779
 Component Sizing Information, AirTerminal:SingleDuct:VAV:Reheat, AIR TERMINAL SINGLE DUCT VAV REHEAT BSMT_SOUTH, Design Size Maximum Flow Fraction during Reheat [], 0.53060
 Component Sizing Information, AirTerminal:SingleDuct:VAV:Reheat, AIR TERMINAL SINGLE DUCT VAV REHEAT BSMT_SOUTH, User-Specified Maximum Flow Fraction during Reheat [], 1.00000
Water Heating Coil Capacity Information,Coil:Heating:Water,COIL HEATING WATER BSMT_SOUTH,13833.76
 Component Sizing Information, AirTerminal:SingleDuct:VAV:Reheat, AIR TERMINAL SINGLE DUCT VAV REHEAT LOBBY_MID, Design Size Maximum Air Flow Rate [m3/s], 1.75845
 Component Sizing Information, AirTerminal:SingleDuct:VAV:Reheat, AIR TERMINAL SINGLE DUCT VAV REHEAT LOBBY_MID, User-Specified Maximum Air Flow Rate [m3/s], 3.77558
 Component Sizing Information, AirTerminal:SingleDuct:VAV:Reheat, AIR TERMINAL SINGLE DUCT VAV REHEAT LOBBY_MID, Design Size Maximum Flow Fraction during Reheat [], 0.36983
 Component Sizing Information, AirTerminal:SingleDuct:VAV:Reheat, AIR TERMINAL SINGLE DUCT VAV REHEAT LOBBY_MID, User-Specified Maximum Flow Fraction during Reheat [], 1.00000
Water Heating Coil Capacity Information,Coil:Heating:Water,COIL HEATING WATER LOBBY_MID,29046.33
 Component Sizing Information, AirTerminal:SingleDuct:VAV:Reheat, AIR TERMINAL SINGLE DUCT VAV REHEAT NORTHEND, Design Size Maximum Air Flow Rate [m3/s], 1.49648
 Component Sizing Information, AirTerminal:SingleDuct:VAV:Reheat, AIR TERMINAL SINGLE DUCT VAV REHEAT NORTHEND, User-Specified Maximum Air Flow Rate [m3/s], 3.77558
 Component Sizing Information, AirTerminal:SingleDuct:VAV:Reheat, AIR TERMINAL SINGLE DUCT VAV REHEAT NORTHEND, Design Size Maximum Flow Fraction during Reheat [], 0.31000
 Component Sizing Information, AirTerminal:SingleDuct:VAV:Reheat, AIR TERMINAL SINGLE DUCT VAV REHEAT NORTHEND, User-Specified Maximum Flow Fraction during Reheat [], 1.00000
Water Heating Coil Capacity Information,Coil:Heating:Water,COIL HEATING WATER NORTHEND,29046.33
 Component Sizing Information, AirTerminal:SingleDuct:VAV:Reheat, AIR TERMINAL SINGLE DUCT VAV REHEAT SOUTHEND, Design Size Maximum Air Flow Rate [m3/s], 0.94369
 Component Sizing Information, AirTerminal:SingleDuct:VAV:Reheat, AIR TERMINAL SINGLE DUCT VAV REHEAT SOUTHEND, User-Specified Maximum Air Flow Rate [m3/s], 3.77558
 Component Sizing Information, AirTerminal:SingleDuct:VAV:Reheat, AIR TERMINAL SINGLE DUCT VAV REHEAT SOUTHEND, Design Size Maximum Flow Fraction during Reheat [], 0.31000
 Component Sizing Information, AirTerminal:SingleDuct:VAV:Reheat, AIR TERMINAL SINGLE DUCT VAV REHEAT SOUTHEND, User-Specified Maximum Flow Fraction during Reheat [], 1.00000
Water Heating Coil Capacity Information,Coil:Heating:Water,COIL HEATING WATER SOUTHEND,29046.33
 Component Sizing Information, AirTerminal:SingleDuct:VAV:Reheat, AIR TERMINAL SINGLE DUCT VAV REHEAT STAIR_NORTH, Design Size Maximum Air Flow Rate [m3/s], 0.27523
 Component Sizing Information, AirTerminal:SingleDuct:VAV:Reheat, AIR TERMINAL SINGLE DUCT VAV REHEAT STAIR_NORTH, User-Specified Maximum Air Flow Rate [m3/s], 0.47195
 Component Sizing Information, AirTerminal:SingleDuct:VAV:Reheat, AIR TERMINAL SINGLE DUCT VAV REHEAT STAIR_NORTH, Design Size Maximum Flow Fraction during Reheat [], 0.35000
 Component Sizing Information, AirTerminal:SingleDuct:VAV:Reheat, AIR TERMINAL SINGLE DUCT VAV REHEAT STAIR_NORTH, User-Specified Maximum Flow Fraction during Reheat [], 1.00000
Water Heating Coil Capacity Information,Coil:Heating:Water,COIL HEATING WATER STAIR_NORTH,3320.10
 Component Sizing Information, AirTerminal:SingleDuct:VAV:Reheat, AIR TERMINAL SINGLE DUCT VAV REHEAT STAIR_SOUTH, Design Size Maximum Air Flow Rate [m3/s], 0.36610
 Component Sizing Information, AirTerminal:SingleDuct:VAV:Reheat, AIR TERMINAL SINGLE DUCT VAV REHEAT STAIR_SOUTH, User-Specified Maximum Air Flow Rate [m3/s], 0.47195
 Component Sizing Information, AirTerminal:SingleDuct:VAV:Reheat, AIR TERMINAL SINGLE DUCT VAV REHEAT STAIR_SOUTH, Design Size Maximum Flow Fraction during Reheat [], 0.35000
 Component Sizing Information, AirTerminal:SingleDuct:VAV:Reheat, AIR TERMINAL SINGLE DUCT VAV REHEAT STAIR_SOUTH, User-Specified Maximum Flow Fraction during Reheat [], 1.00000
Water Heating Coil Capacity Information,Coil:Heating:Water,COIL HEATING WATER STAIR_SOUTH,3320.10
!<Controller:MechanicalVentilation>,Name,Availability Schedule Name,Demand Controlled Ventilation {Yes/No},System Outdoor Air Method,Zone Maximum Outdoor Air Fraction,Number of Zones,Zone Name,DSOA Name,DSZAD Name
 Controller:MechanicalVentilation,CONTROLLER MECHANICAL VENTILATION 1,ALWAYS ON DISCRETE,No,ZoneSum,1.00,4,1ST_MID,DESIGN SPECIFICATION OUTDOOR AIR 4,1ST_MID DESIGN SPEC ZONE AIR DIST,2ND_MID,DESIGN SPECIFICATION OUTDOOR AIR 7,2ND_MID DESIGN SPEC ZONE AIR DIST,3RD_MID,DESIGN SPECIFICATION OUTDOOR AIR 2,3RD_MID DESIGN SPEC ZONE AIR DIST,LOBBY_MID,DESIGN SPECIFICATION OUTDOOR AIR 3,LOBBY_MID DESIGN SPEC ZONE AIR DIST
 Controller:MechanicalVentilation,CONTROLLER MECHANICAL VENTILATION 3,ALWAYS ON DISCRETE,No,ZoneSum,1.00,9,1ST_NORTH,DESIGN SPECIFICATION OUTDOOR AIR 5,1ST_NORTH DESIGN SPEC ZONE AIR DIST,2ND_NORTHBACK,MEDIUMOFFICE OUTDOOR AIR 5,2ND_NORTHBACK DESIGN SPEC ZONE AIR DIST,2ND_NORTHFRONT,MEDIUMOFFICE OUTDOOR AIR 5,2ND_NORTHFRONT DESIGN SPEC ZONE AIR DIST,3RD_NORTHBACK,MEDIUMOFFICE OUTDOOR AIR 2,3RD_NORTHBACK DESIGN SPEC ZONE AIR DIST,3RD_NORTHEND,MEDIUMOFFICE OUTDOOR AIR 5,3RD_NORTHEND DESIGN SPEC ZONE AIR DIST,3RD_NORTHFRONT,MEDIUMOFFICE OUTDOOR AIR 10,3RD_NORTHFRONT DESIGN SPEC ZONE AIR DIST,BSMT_NORTH,DESIGN SPECIFICATION OUTDOOR AIR 10,BSMT_NORTH DESIGN SPEC ZONE AIR DIST,NORTHEND,DESIGN SPECIFICATION OUTDOOR AIR 1,NORTHEND DESIGN SPEC ZONE AIR DIST,STAIR_NORTH,MEDIUMOFFICE OUTDOOR AIR 7,STAIR_NORTH DESIGN SPEC ZONE AIR DIST
 Controller:MechanicalVentilation,CONTROLLER MECHANICAL VENTILATION 2,ALWAYS ON DISCRETE,No,ZoneSum,1.00,9,1ST_SOUTH,DESIGN SPECIFICATION OUTDOOR AIR 8,1ST_SOUTH DESIGN SPEC ZONE AIR DIST,2ND_SOUTHBACK,MEDIUMOFFICE OUTDOOR AIR 5,2ND_SOUTHBACK DESIGN SPEC ZONE AIR DIST,2ND_SOUTHFRONT,DESIGN SPECIFICATION OUTDOOR AIR 6,2ND_SOUTHFRONT DESIGN SPEC ZONE AIR DIST,3RD_SOUTHBACK,MEDIUMOFFICE OUTDOOR AIR 10,3RD_SOUTHBACK DESIGN SPEC ZONE AIR DIST,3RD_SOUTHEND,MEDIUMOFFICE OUTDOOR AIR 10,3RD_SOUTHEND DESIGN SPEC ZONE AIR DIST,3RD_SOUTHFRONT,MEDIUMOFFICE OUTDOOR AIR 10,3RD_SOUTHFRONT DESIGN SPEC ZONE AIR DIST,BSMT_SOUTH,DESIGN SPECIFICATION OUTDOOR AIR 9,BSMT_SOUTH DESIGN SPEC ZONE AIR DIST,SOUTHEND,DESIGN SPECIFICATION OUTDOOR AIR 11,SOUTHEND DESIGN SPEC ZONE AIR DIST,STAIR_SOUTH,MEDIUMOFFICE OUTDOOR AIR 7,STAIR_SOUTH DESIGN SPEC ZONE AIR DIST
 Component Sizing Information, Coil:Cooling:DX:TwoSpeed, COIL COOLING DX TWO SPEED 1, Design Size Rated High Speed Air Flow Rate [m3/s], 3.13267
 Component Sizing Information, Coil:Cooling:DX:TwoSpeed, COIL COOLING DX TWO SPEED 1, Design Size Rated High Speed Total Cooling Capacity (gross) [W], 68022.69324
 Component Sizing Information, Coil:Cooling:DX:TwoSpeed, COIL COOLING DX TWO SPEED 1, Design Size Rated High Speed Sensible Heat Ratio, 0.71128
 Component Sizing Information, Coil:Cooling:DX:TwoSpeed, COIL COOLING DX TWO SPEED 1, Design Size Rated Low Speed Air Flow Rate [m3/s], 1.04412
 Component Sizing Information, Coil:Cooling:DX:TwoSpeed, COIL COOLING DX TWO SPEED 1, Design Size Rated Low Speed Total Cooling Capacity (gross) [W], 22671.96366
 Component Sizing Information, Coil:Cooling:DX:TwoSpeed, COIL COOLING DX TWO SPEED 1, Design Size Rated Low Speed Sensible Heat Ratio, 0.71128
! <VAV DX Cooling Coil Standard Rating Information>, DX Coil Type, DX Coil Name, Fan Type, Fan Name, Standard Net Cooling Capacity {W}, Standard Net Cooling Capacity {Btu/h}, IEER {Btu/W-h}, COP 100% Capacity {W/W}, COP 75% Capacity {W/W}, COP 50% Capacity {W/W}, COP 25% Capacity {W/W}, EER 100% Capacity {Btu/W-h}, EER 75% Capacity {Btu/W-h}, EER 50% Capacity {Btu/W-h}, EER 25% Capacity {Btu/W-h}, Supply Air Flow 100% {kg/s}, Supply Air Flow 75% {kg/s},Supply Air Flow 50% {kg/s},Supply Air Flow 25% {kg/s}
 VAV DX Cooling Coil Standard Rating Information, Coil:Cooling:DX:TwoSpeed,COIL COOLING DX TWO SPEED 1,N/A,N/A,65715.40,224230.24,12.98,2.93,3.50,4.19,4.69,9.99,11.95,14.30,16.00,3.6225,2.8506,1.8969,0.8181,
Water Heating Coil Capacity Information,Coil:Heating:Water,COIL HEATING WATER AHU1,37638.36
 Component Sizing Information, Fan:VariableVolume, FAN VARIABLE VOLUME 1, Design Size Maximum Flow Rate [m3/s], 3.13267
 Component Sizing Information, Fan:VariableVolume, FAN VARIABLE VOLUME 1, User-Specified Maximum Flow Rate [m3/s], 6.43689
 Component Sizing Information, Coil:Cooling:DX:TwoSpeed, COIL COOLING DX TWO SPEED 2, Design Size Rated High Speed Air Flow Rate [m3/s], 6.95511
 Component Sizing Information, Coil:Cooling:DX:TwoSpeed, COIL COOLING DX TWO SPEED 2, Design Size Rated High Speed Total Cooling Capacity (gross) [W], 123369.02409
 Component Sizing Information, Coil:Cooling:DX:TwoSpeed, COIL COOLING DX TWO SPEED 2, Design Size Rated High Speed Sensible Heat Ratio, 0.77411
 Component Sizing Information, Coil:Cooling:DX:TwoSpeed, COIL COOLING DX TWO SPEED 2, Design Size Rated Low Speed Air Flow Rate [m3/s], 2.31814
 Component Sizing Information, Coil:Cooling:DX:TwoSpeed, COIL COOLING DX TWO SPEED 2, Design Size Rated Low Speed Total Cooling Capacity (gross) [W], 41118.89573
 Component Sizing Information, Coil:Cooling:DX:TwoSpeed, COIL COOLING DX TWO SPEED 2, Design Size Rated Low Speed Sensible Heat Ratio, 0.77411
 VAV DX Cooling Coil Standard Rating Information, Coil:Cooling:DX:TwoSpeed,COIL COOLING DX TWO SPEED 2,N/A,N/A,118199.56,403313.64,12.41,2.84,3.35,3.98,4.52,9.67,11.43,13.59,15.44,8.0426,6.3353,4.2173,1.7408,
Water Heating Coil Capacity Information,Coil:Heating:Water,COIL HEATING WATER AHU2,55879.41
 Component Sizing Information, Fan:VariableVolume, FAN VARIABLE VOLUME 2, Design Size Maximum Flow Rate [m3/s], 6.95511
 Component Sizing Information, Fan:VariableVolume, FAN VARIABLE VOLUME 2, User-Specified Maximum Flow Rate [m3/s], 11.59811
 Component Sizing Information, Coil:Cooling:DX:TwoSpeed, COIL COOLING DX TWO SPEED 3, Design Size Rated High Speed Air Flow Rate [m3/s], 7.83580
 Component Sizing Information, Coil:Cooling:DX:TwoSpeed, COIL COOLING DX TWO SPEED 3, Design Size Rated High Speed Total Cooling Capacity (gross) [W], 133171.32632
 Component Sizing Information, Coil:Cooling:DX:TwoSpeed, COIL COOLING DX TWO SPEED 3, Design Size Rated High Speed Sensible Heat Ratio, 0.78910
 Component Sizing Information, Coil:Cooling:DX:TwoSpeed, COIL COOLING DX TWO SPEED 3, Design Size Rated Low Speed Air Flow Rate [m3/s], 2.61167
 Component Sizing Information, Coil:Cooling:DX:TwoSpeed, COIL COOLING DX TWO SPEED 3, Design Size Rated Low Speed Total Cooling Capacity (gross) [W], 44386.00306
 Component Sizing Information, Coil:Cooling:DX:TwoSpeed, COIL COOLING DX TWO SPEED 3, Design Size Rated Low Speed Sensible Heat Ratio, 0.78910
 VAV DX Cooling Coil Standard Rating Information, Coil:Cooling:DX:TwoSpeed,COIL COOLING DX TWO SPEED 3,N/A,N/A,127337.43,434493.34,12.28,2.81,3.31,3.94,4.49,9.60,11.31,13.43,15.31,9.0610,7.1318,4.7502,1.9446,
Water Heating Coil Capacity Information,Coil:Heating:Water,COIL HEATING WATER AHU3,55544.45
 Component Sizing Information, Fan:VariableVolume, FAN VARIABLE VOLUME 3, Design Size Maximum Flow Rate [m3/s], 7.83580
 Component Sizing Information, Fan:VariableVolume, FAN VARIABLE VOLUME 3, User-Specified Maximum Flow Rate [m3/s], 11.71515
 Component Sizing Information, Boiler:HotWater, BOILER HOT WATER 1, Nominal Capacity [W], 454879.55401
 Component Sizing Information, Boiler:HotWater, BOILER HOT WATER 1, Design Water Flow Rate [m3/s], 4.85456E-003
Water Heater Information,WaterHeater:Mixed,OS:WATERHEATER:MIXED,0.7570,117222.5,0.623,0.6215
! <Environment>,Environment Name,Environment Type, Start Date, End Date, Start DayOfWeek, Duration {#days}, Source:Start DayOfWeek,  Use Daylight Saving, Use Holidays, Apply Weekend Holiday Rule,  Use Rain Values, Use Snow Values
! <Environment:Special Days>, Special Day Name, Special Day Type, Source, Start Date, Duration {#days}
! <Environment:Daylight Saving>, Daylight Saving Indicator, Source, Start Date, End Date
! <Environment:WarmupDays>, NumberofWarmupDays
Environment,RUN PERIOD 1,WeatherFileRunPeriod,01/01,12/31,Sunday,365,Use RunPeriod Specified Day,No ,No ,No ,Yes,Yes
Environment:Daylight Saving,Yes,InputFile,03/12,11/05
Environment:WarmupDays, 20
! <Warmup Convergence Information>,Zone Name,Environment Type/Name,Average Warmup Temperature Difference {deltaC},Std Dev Warmup Temperature Difference {deltaC},Max Temperature Pass/Fail Convergence,Min Temperature Pass/Fail Convergence,Average Warmup Load Difference {W},Std Dev Warmup Load Difference {W},Heating Load Pass/Fail Convergence,Cooling Load Pass/Fail Convergence
 Warmup Convergence Information,1ST_MID,RunPeriod: RUN PERIOD 1,5.7688542913E-003,8.2745004079E-003,Pass,Pass,3.1050744268E-002,3.3362492524E-002,Pass,Pass
 Warmup Convergence Information,1ST_NORTH,RunPeriod: RUN PERIOD 1,2.7071413031E-002,6.1262662003E-002,Pass,Pass,3.6578683867E-002,5.4617349951E-002,Pass,Pass
 Warmup Convergence Information,1ST_SOUTH,RunPeriod: RUN PERIOD 1,1.3985015575E-002,4.3565255380E-002,Pass,Pass,0.1655316730,0.7724840909,Pass,Pass
 Warmup Convergence Information,2ND_MID,RunPeriod: RUN PERIOD 1,5.0361578184E-003,6.1640485327E-003,Pass,Pass,2.9652516219E-002,4.7769206830E-002,Pass,Pass
 Warmup Convergence Information,2ND_NORTHBACK,RunPeriod: RUN PERIOD 1,2.5132699894E-002,3.0349180846E-002,Pass,Pass,0.4556209656,2.4164020284,Pass,Pass
 Warmup Convergence Information,2ND_NORTHFRONT,RunPeriod: RUN PERIOD 1,6.2661650653E-002,0.1560752991,Pass,Pass,0.2074838963,0.7654838765,Pass,Pass
 Warmup Convergence Information,2ND_SOUTHBACK,RunPeriod: RUN PERIOD 1,1.0934897585E-002,3.3253926015E-002,Pass,Pass,0.4587556448,0.7278258084,Pass,Pass
 Warmup Convergence Information,2ND_SOUTHFRONT,RunPeriod: RUN PERIOD 1,4.1104060951E-002,0.1179131374,Pass,Pass,0.1428092807,0.6714372908,Pass,Pass
 Warmup Convergence Information,3RD_MID,RunPeriod: RUN PERIOD 1,6.9826980300E-003,4.7037413968E-003,Pass,Pass,1.3688139932E-002,1.2173445894E-002,Pass,Pass
 Warmup Convergence Information,3RD_NORTHBACK,RunPeriod: RUN PERIOD 1,1.3748406035E-002,3.1975743450E-002,Pass,Pass,2.3759659299E-002,4.7102121850E-002,Pass,Pass
 Warmup Convergence Information,3RD_NORTHEND,RunPeriod: RUN PERIOD 1,7.8290679058E-003,1.3873003521E-002,Pass,Pass,1.6117480231E-002,1.6774288051E-002,Pass,Pass
 Warmup Convergence Information,3RD_NORTHFRONT,RunPeriod: RUN PERIOD 1,2.1153343951E-002,5.3545998817E-002,Pass,Pass,3.0334024371E-002,6.1456334876E-002,Pass,Pass
 Warmup Convergence Information,3RD_SOUTHBACK,RunPeriod: RUN PERIOD 1,4.3223854079E-003,3.1524760682E-003,Pass,Pass,6.6884506429E-003,6.0363132716E-003,Pass,Pass
 Warmup Convergence Information,3RD_SOUTHEND,RunPeriod: RUN PERIOD 1,4.3134062899E-003,3.4665261013E-003,Pass,Pass,1.6774890417E-002,1.6144267811E-002,Pass,Pass
 Warmup Convergence Information,3RD_SOUTHFRONT,RunPeriod: RUN PERIOD 1,8.6445165907E-002,0.1261582171,Pass,Pass,0.0000000000,0.0000000000,Pass,Pass
 Warmup Convergence Information,BSMT_NORTH,RunPeriod: RUN PERIOD 1,2.9219806260E-002,2.6976399026E-002,Pass,Pass,0.1888067008,0.3835709254,Pass,Pass
 Warmup Convergence Information,BSMT_SOUTH,RunPeriod: RUN PERIOD 1,1.4231774126E-002,3.3452663618E-002,Pass,Pass,0.3222307602,1.7664651205,Pass,Pass
 Warmup Convergence Information,LOBBY_MID,RunPeriod: RUN PERIOD 1,1.7616124575E-002,3.9992896174E-002,Pass,Pass,2.2331122201,11.7747763245,Pass,Pass
 Warmup Convergence Information,NORTHEND,RunPeriod: RUN PERIOD 1,3.5290976920E-002,4.2460438073E-002,Pass,Pass,5.4935985370E-002,0.1036538492,Pass,Pass
 Warmup Convergence Information,SOUTHEND,RunPeriod: RUN PERIOD 1,1.3091912554E-002,3.2880233285E-002,Pass,Pass,0.2014043836,0.7455776678,Pass,Pass
 Warmup Convergence Information,STAIR_NORTH,RunPeriod: RUN PERIOD 1,2.1734343139E-003,1.5189390778E-003,Pass,Pass,1.1092484928E-002,1.1541927026E-002,Pass,Pass
 Warmup Convergence Information,STAIR_SOUTH,RunPeriod: RUN PERIOD 1,2.0369848562E-003,1.5218431366E-003,Pass,Pass,5.8809385926E-003,6.2681152429E-003,Pass,Pass
! <Program Control Information:Threads/Parallel Sims>, Threading Supported,Maximum Number of Threads, Env Set Threads (OMP_NUM_THREADS), EP Env Set Threads (EP_OMP_NUM_THREADS), IDF Set Threads, Number of Threads Used (Interior Radiant Exchange), Number Nominal Surfaces, Number Parallel Sims
Program Control:Threads/Parallel Sims, No,1, N/A, N/A, N/A, N/A, N/A, N/A
End of Data
